 WRF V2.2 MODEL
 DYNAMICS OPTION: Eulerian Mass Coordinate
   med_initialdata_input: calling input_model_input
  STEPRA,STEPCU,STEPBL 1800 1 1
 memory order = xyc  XYC
 memory order = xyc  XYC
 memory order = xyc  XYC
 memory order = xyc  XYC
 memory order = xyc  XYC
 memory order = xyc  XYC
 memory order = xyc  XYC
 memory order = xyc  XYC
 memory order = xyc  XYC
 memory order = xyc  XYC
 memory order = xyc  XYC
 memory order = xyc  XYC
 memory order = xyc  XYC
 memory order = xyc  XYC
 memory order = xyc  XYC
 memory order = xyc  XYC
 memory order = xyc  XYC
 memory order = xyc  XYC
 memory order = xyc  XYC
 memory order = xyc  XYC
 memory order = xyc  XYC
 memory order = xyc  XYC
 memory order = xyc  XYC
 memory order = xyc  XYC
 memory order = xyc  XYC
 memory order = xyc  XYC
Timing for Writing wrfout_d01_0001-01-01_00:00:00 for domain        1:    1.26000 elapsed seconds.
 WRF NUMBER OF TILES =   1
  fire: dx,dy, dxf,dyf= 60.00000000 60.00000000 6.000000000 6.000000000
  fire_startup: ifuelread= 1
  tignm =  -100.0000000
  t_ignite =  0.3333333507E-01
  time     =  1.000000000
  diff     =  -0.9666666389 1.000000000
Timing for main: time 0001-01-01_00:00:01 on domain   1: ********** elapsed seconds.
  tignm =  -100.0000000
  t_ignite =  0.3333333507E-01
  time     =  2.000000000
  diff     =  -1.966666698 1.000000000
  FIRE IGNITION AT: TLAT_STF, TLON_STF= 0.6750000175E-02 0.6750000175E-02
  fire dist dom1 center (m): dxst,dyst= 0.0000000000E+00 0.0000000000E+00
  dist SW corner dom1 to center dom1 (m): xcntr,ycntr= 1260.000000 1260.000000
  coords fire rel to SW corner mod 1 (m): stx,sty: 1260.000000 1260.000000
  pos of sw corner of fire domain (m): xfx1,xfy1: 0.0000000000E+00 0.0000000000E+00
  Fire position relative to fire domain (m): 1260.000000 1260.000000
  Fire position in domain atm grid pts: 22 22
  Fire position in domain in fuel cells: 211 211
  Spot fire initialized with rad= 84.93766785  at  211 211  fuel cell location
 in fire_ln: 1
 in fire_ln: 2
 in fire_ln: 3
 in fire_ln: 4
 in fire_ln: 5
 in fire_ln: 6
 in fire_ln: 7
 in fire_ln: 8
 in fire_ln: 8.1 :  208 198
 in fire_ln: 8.1.1 : nh0   =  3
 in fire_ln: 8.1.2 : nct   =  1
 in fire_ln: 8.1.3 : icls  =  4
 in fire_ln: 8.1.4 : itt   =  3
 in fire_ln: 8.1.5 : i,j   =  208 198
 in fire_ln: 8.1.6 : tlx   =  1.000000000 1.000000000
 in fire_ln: 8.1.7 : int   =  1 1
 in fire_ln: 8.1.8 : i2,j2 = 209 199
 in fire_ln: 8.2 :  208 198
 in fire_ln: 8.3 :  208 198
 in fire_ln: 8.3.1 :  209 199
 in fire_ln: 8.3.2 :  209 198
 in fire_ln: 8.4 :  208 198
 in fire_ln: 8.5 :  208 198
 in fire_ln: 8.5.1 :  208 198
 in fire_ln: 8.5.2 :  208 198
 in fire_ln: 8.5.3 :  208 198
 in fire_ln: 8.5.4 :  208 198
 in fire_ln: 8.5.5 :  208 198
 in fire_ln: 8.5.5 : ncod( 208 199 ) =  3 1
 in fire_ln: 8.5.5 : ncod( 209 198 ) =  2 1
 in fire_ln: 8.5.5 : xcd( 208 198 1 ) =  -0.2394653559
 in fire_ln: 8.5.5 : xcd( 209 198 2 ) =  0.5000000000
 in fire_ln: 8.5.5 : i2-i  =  1
 in fire_ln: 8.5.5 : ycd( 208 198 1 ) =  0.5000000000
 in fire_ln: 8.5.5 : ycd( 209 198 2 ) =  0.6649315357E-01
 in fire_ln: 8.5.5 : j2-j  =  0
 in fire_ln: 8.5.5 : xcd( 208 198 3 ) =  0.5000000000
 in fire_ln: 8.5.5 : xcd( 208 199 1 ) =  -0.5000000000
 in fire_ln: 8.5.5 : i1-i  =  0
 in fire_ln: 8.5.5 : ycd( 208 198 3 ) =  0.2835786939
 in fire_ln: 8.5.5 : ycd( 208 199 1 ) =  -0.4217160344
 in fire_ln: 8.5.5 : j1-j  =  1
 in fire_ln: 8.5.6 :  208 198
 in fire_ln: 8.6 :  208 198
 in fire_ln: 8.7 :  208 198
 in fire_ln: 8.8 :  208 198
 in fire_ln: 8.9 :  208 198
 in fire_ln: 8.10 :  208 198
 in fire_ln: 8.1 :  209 198
 in fire_ln: 8.1.1 : nh0   =  2
 in fire_ln: 8.1.2 : nct   =  2
 in fire_ln: 8.1.3 : icls  =  2
 in fire_ln: 8.1.4 : itt   =  2
 in fire_ln: 8.1.5 : i,j   =  209 198
 in fire_ln: 8.1.6 : tlx   =  1.000000000 1.000000000
 in fire_ln: 8.1.7 : int   =  1 1
 in fire_ln: 8.1.8 : i2,j2 = 210 199
 in fire_ln: 8.2 :  209 198
 in fire_ln: 8.3 :  209 198
 in fire_ln: 8.3.1 :  210 199
 in fire_ln: 8.3.2 :  210 198
 in fire_ln: 8.4 :  209 198
 in fire_ln: 8.5 :  209 198
 in fire_ln: 8.5.1 :  209 198
 in fire_ln: 8.5.2 :  209 198
 in fire_ln: 8.5.3 :  209 198
 in fire_ln: 8.5.4 :  209 198
 in fire_ln: 8.5.5 :  209 198
 in fire_ln: 8.5.5 : ncod( 208 198 ) =  3 1
 in fire_ln: 8.5.5 : ncod( 210 198 ) =  2 1
 in fire_ln: 8.5.5 : xcd( 209 198 1 ) =  -0.5000000000
 in fire_ln: 8.5.5 : xcd( 210 198 2 ) =  0.5000000000
 in fire_ln: 8.5.5 : i2-i  =  1
 in fire_ln: 8.5.5 : ycd( 209 198 1 ) =  0.2835786939
 in fire_ln: 8.5.5 : ycd( 210 198 2 ) =  -0.7648497820E-01
 in fire_ln: 8.5.5 : j2-j  =  0
 in fire_ln: 8.5.5 : xcd( 209 198 2 ) =  0.5000000000
 in fire_ln: 8.5.5 : xcd( 208 198 1 ) =  -0.2394653559
 in fire_ln: 8.5.5 : i1-i  =  -1
 in fire_ln: 8.5.5 : ycd( 209 198 2 ) =  0.6649315357E-01
 in fire_ln: 8.5.5 : ycd( 208 198 1 ) =  0.5000000000
 in fire_ln: 8.5.5 : j1-j  =  0
 in fire_ln: 8.5.6 :  209 198
 in fire_ln: 8.6 :  209 198
 in fire_ln: 8.7 :  209 198
 in fire_ln: 8.8 :  209 198
 in fire_ln: 8.9 :  209 198
 in fire_ln: 8.10 :  209 198
 in fire_ln: 8.1 :  210 198
 in fire_ln: 8.1.1 : nh0   =  2
 in fire_ln: 8.1.2 : nct   =  2
 in fire_ln: 8.1.3 : icls  =  2
 in fire_ln: 8.1.4 : itt   =  2
 in fire_ln: 8.1.5 : i,j   =  210 198
 in fire_ln: 8.1.6 : tlx   =  1.000000000 -1.000000000
 in fire_ln: 8.1.7 : int   =  1 -1
 in fire_ln: 8.1.8 : i2,j2 = 211 197
 in fire_ln: 8.2 :  210 198
 in fire_ln: 8.3 :  210 198
 in fire_ln: 8.3.1 :  211 197
 in fire_ln: 8.3.2 :  211 198
 in fire_ln: 8.4 :  210 198
 in fire_ln: 8.5 :  210 198
 in fire_ln: 8.5.1 :  210 198
 in fire_ln: 8.5.2 :  210 198
 in fire_ln: 8.5.3 :  210 198
 in fire_ln: 8.5.4 :  210 198
 in fire_ln: 8.5.5 :  210 198
 in fire_ln: 8.5.5 : ncod( 209 198 ) =  2 1
 in fire_ln: 8.5.5 : ncod( 211 198 ) =  2 1
 in fire_ln: 8.5.5 : xcd( 210 198 1 ) =  -0.5000000000
 in fire_ln: 8.5.5 : xcd( 211 198 2 ) =  0.5000000000
 in fire_ln: 8.5.5 : i2-i  =  1
 in fire_ln: 8.5.5 : ycd( 210 198 1 ) =  0.6649315357E-01
 in fire_ln: 8.5.5 : ycd( 211 198 2 ) =  -0.1474347115
 in fire_ln: 8.5.5 : j2-j  =  0
 in fire_ln: 8.5.5 : xcd( 210 198 2 ) =  0.5000000000
 in fire_ln: 8.5.5 : xcd( 209 198 1 ) =  -0.5000000000
 in fire_ln: 8.5.5 : i1-i  =  -1
 in fire_ln: 8.5.5 : ycd( 210 198 2 ) =  -0.7648497820E-01
 in fire_ln: 8.5.5 : ycd( 209 198 1 ) =  0.2835786939
 in fire_ln: 8.5.5 : j1-j  =  0
 in fire_ln: 8.5.6 :  210 198
 in fire_ln: 8.6 :  210 198
 in fire_ln: 8.7 :  210 198
 in fire_ln: 8.8 :  210 198
 in fire_ln: 8.9 :  210 198
 in fire_ln: 8.10 :  210 198
 in fire_ln: 8.1 :  211 198
 in fire_ln: 8.1.1 : nh0   =  2
 in fire_ln: 8.1.2 : nct   =  2
 in fire_ln: 8.1.3 : icls  =  2
 in fire_ln: 8.1.4 : itt   =  2
 in fire_ln: 8.1.5 : i,j   =  211 198
 in fire_ln: 8.1.6 : tlx   =  1.000000000 -1.000000000
 in fire_ln: 8.1.7 : int   =  1 -1
 in fire_ln: 8.1.8 : i2,j2 = 212 197
 in fire_ln: 8.2 :  211 198
 in fire_ln: 8.3 :  211 198
 in fire_ln: 8.3.1 :  212 197
 in fire_ln: 8.3.2 :  212 198
 in fire_ln: 8.4 :  211 198
 in fire_ln: 8.5 :  211 198
 in fire_ln: 8.5.1 :  211 198
 in fire_ln: 8.5.2 :  211 198
 in fire_ln: 8.5.3 :  211 198
 in fire_ln: 8.5.4 :  211 198
 in fire_ln: 8.5.5 :  211 198
 in fire_ln: 8.5.5 : ncod( 210 198 ) =  2 1
 in fire_ln: 8.5.5 : ncod( 212 198 ) =  2 1
 in fire_ln: 8.5.5 : xcd( 211 198 1 ) =  -0.5000000000
 in fire_ln: 8.5.5 : xcd( 212 198 2 ) =  0.5000000000
 in fire_ln: 8.5.5 : i2-i  =  1
 in fire_ln: 8.5.5 : ycd( 211 198 1 ) =  -0.7648497820E-01
 in fire_ln: 8.5.5 : ycd( 212 198 2 ) =  -0.1474347115
 in fire_ln: 8.5.5 : j2-j  =  0
 in fire_ln: 8.5.5 : xcd( 211 198 2 ) =  0.5000000000
 in fire_ln: 8.5.5 : xcd( 210 198 1 ) =  -0.5000000000
 in fire_ln: 8.5.5 : i1-i  =  -1
 in fire_ln: 8.5.5 : ycd( 211 198 2 ) =  -0.1474347115
 in fire_ln: 8.5.5 : ycd( 210 198 1 ) =  0.6649315357E-01
 in fire_ln: 8.5.5 : j1-j  =  0
 in fire_ln: 8.5.6 :  211 198
 in fire_ln: 8.6 :  211 198
 in fire_ln: 8.7 :  211 198
 in fire_ln: 8.8 :  211 198
 in fire_ln: 8.9 :  211 198
 in fire_ln: 8.10 :  211 198
 in fire_ln: 8.1 :  212 198
 in fire_ln: 8.1.1 : nh0   =  2
 in fire_ln: 8.1.2 : nct   =  2
 in fire_ln: 8.1.3 : icls  =  2
 in fire_ln: 8.1.4 : itt   =  2
 in fire_ln: 8.1.5 : i,j   =  212 198
 in fire_ln: 8.1.6 : tlx   =  1.000000000 -1.000000000
 in fire_ln: 8.1.7 : int   =  1 -1
 in fire_ln: 8.1.8 : i2,j2 = 213 197
 in fire_ln: 8.2 :  212 198
 in fire_ln: 8.3 :  212 198
 in fire_ln: 8.3.1 :  213 197
 in fire_ln: 8.3.2 :  213 198
 in fire_ln: 8.4 :  212 198
 in fire_ln: 8.5 :  212 198
 in fire_ln: 8.5.1 :  212 198
 in fire_ln: 8.5.2 :  212 198
 in fire_ln: 8.5.3 :  212 198
 in fire_ln: 8.5.4 :  212 198
 in fire_ln: 8.5.5 :  212 198
 in fire_ln: 8.5.5 : ncod( 211 198 ) =  2 1
 in fire_ln: 8.5.5 : ncod( 213 198 ) =  2 1
 in fire_ln: 8.5.5 : xcd( 212 198 1 ) =  -0.5000000000
 in fire_ln: 8.5.5 : xcd( 213 198 2 ) =  0.5000000000
 in fire_ln: 8.5.5 : i2-i  =  1
 in fire_ln: 8.5.5 : ycd( 212 198 1 ) =  -0.1474347115
 in fire_ln: 8.5.5 : ycd( 213 198 2 ) =  -0.7648497820E-01
 in fire_ln: 8.5.5 : j2-j  =  0
 in fire_ln: 8.5.5 : xcd( 212 198 2 ) =  0.5000000000
 in fire_ln: 8.5.5 : xcd( 211 198 1 ) =  -0.5000000000
 in fire_ln: 8.5.5 : i1-i  =  -1
 in fire_ln: 8.5.5 : ycd( 212 198 2 ) =  -0.1474347115
 in fire_ln: 8.5.5 : ycd( 211 198 1 ) =  -0.7648497820E-01
 in fire_ln: 8.5.5 : j1-j  =  0
 in fire_ln: 8.5.6 :  212 198
 in fire_ln: 8.6 :  212 198
 in fire_ln: 8.7 :  212 198
 in fire_ln: 8.8 :  212 198
 in fire_ln: 8.9 :  212 198
 in fire_ln: 8.10 :  212 198
 in fire_ln: 8.1 :  213 198
 in fire_ln: 8.1.1 : nh0   =  2
 in fire_ln: 8.1.2 : nct   =  2
 in fire_ln: 8.1.3 : icls  =  2
 in fire_ln: 8.1.4 : itt   =  2
 in fire_ln: 8.1.5 : i,j   =  213 198
 in fire_ln: 8.1.6 : tlx   =  1.000000000 -1.000000000
 in fire_ln: 8.1.7 : int   =  1 -1
 in fire_ln: 8.1.8 : i2,j2 = 214 197
 in fire_ln: 8.2 :  213 198
 in fire_ln: 8.3 :  213 198
 in fire_ln: 8.3.1 :  214 197
 in fire_ln: 8.3.2 :  214 198
 in fire_ln: 8.4 :  213 198
 in fire_ln: 8.5 :  213 198
 in fire_ln: 8.5.1 :  213 198
 in fire_ln: 8.5.2 :  213 198
 in fire_ln: 8.5.3 :  213 198
 in fire_ln: 8.5.4 :  213 198
 in fire_ln: 8.5.5 :  213 198
 in fire_ln: 8.5.5 : ncod( 212 198 ) =  2 1
 in fire_ln: 8.5.5 : ncod( 214 198 ) =  2 1
 in fire_ln: 8.5.5 : xcd( 213 198 1 ) =  -0.5000000000
 in fire_ln: 8.5.5 : xcd( 214 198 2 ) =  0.5000000000
 in fire_ln: 8.5.5 : i2-i  =  1
 in fire_ln: 8.5.5 : ycd( 213 198 1 ) =  -0.1474347115
 in fire_ln: 8.5.5 : ycd( 214 198 2 ) =  0.6649315357E-01
 in fire_ln: 8.5.5 : j2-j  =  0
 in fire_ln: 8.5.5 : xcd( 213 198 2 ) =  0.5000000000
 in fire_ln: 8.5.5 : xcd( 212 198 1 ) =  -0.5000000000
 in fire_ln: 8.5.5 : i1-i  =  -1
 in fire_ln: 8.5.5 : ycd( 213 198 2 ) =  -0.7648497820E-01
 in fire_ln: 8.5.5 : ycd( 212 198 1 ) =  -0.1474347115
 in fire_ln: 8.5.5 : j1-j  =  0
 in fire_ln: 8.5.6 :  213 198
 in fire_ln: 8.6 :  213 198
 in fire_ln: 8.7 :  213 198
 in fire_ln: 8.8 :  213 198
 in fire_ln: 8.9 :  213 198
 in fire_ln: 8.10 :  213 198
 in fire_ln: 8.1 :  214 198
 in fire_ln: 8.1.1 : nh0   =  2
 in fire_ln: 8.1.2 : nct   =  2
 in fire_ln: 8.1.3 : icls  =  2
 in fire_ln: 8.1.4 : itt   =  2
 in fire_ln: 8.1.5 : i,j   =  214 198
 in fire_ln: 8.1.6 : tlx   =  1.000000000 1.000000000
 in fire_ln: 8.1.7 : int   =  1 1
 in fire_ln: 8.1.8 : i2,j2 = 215 199
 in fire_ln: 8.2 :  214 198
 in fire_ln: 8.3 :  214 198
 in fire_ln: 8.3.1 :  215 199
 in fire_ln: 8.3.2 :  215 198
 in fire_ln: 8.4 :  214 198
 in fire_ln: 8.5 :  214 198
 in fire_ln: 8.5.1 :  214 198
 in fire_ln: 8.5.2 :  214 198
 in fire_ln: 8.5.3 :  214 198
 in fire_ln: 8.5.4 :  214 198
 in fire_ln: 8.5.5 :  214 198
 in fire_ln: 8.5.5 : ncod( 213 198 ) =  2 1
 in fire_ln: 8.5.5 : ncod( 215 198 ) =  2 1
 in fire_ln: 8.5.5 : xcd( 214 198 1 ) =  -0.5000000000
 in fire_ln: 8.5.5 : xcd( 215 198 2 ) =  0.5000000000
 in fire_ln: 8.5.5 : i2-i  =  1
 in fire_ln: 8.5.5 : ycd( 214 198 1 ) =  -0.7648497820E-01
 in fire_ln: 8.5.5 : ycd( 215 198 2 ) =  0.2835786939
 in fire_ln: 8.5.5 : j2-j  =  0
 in fire_ln: 8.5.5 : xcd( 214 198 2 ) =  0.5000000000
 in fire_ln: 8.5.5 : xcd( 213 198 1 ) =  -0.5000000000
 in fire_ln: 8.5.5 : i1-i  =  -1
 in fire_ln: 8.5.5 : ycd( 214 198 2 ) =  0.6649315357E-01
 in fire_ln: 8.5.5 : ycd( 213 198 1 ) =  -0.1474347115
 in fire_ln: 8.5.5 : j1-j  =  0
 in fire_ln: 8.5.6 :  214 198
 in fire_ln: 8.6 :  214 198
 in fire_ln: 8.7 :  214 198
 in fire_ln: 8.8 :  214 198
 in fire_ln: 8.9 :  214 198
 in fire_ln: 8.10 :  214 198
 in fire_ln: 8.1 :  215 198
 in fire_ln: 8.1.1 : nh0   =  2
 in fire_ln: 8.1.2 : nct   =  2
 in fire_ln: 8.1.3 : icls  =  2
 in fire_ln: 8.1.4 : itt   =  2
 in fire_ln: 8.1.5 : i,j   =  215 198
 in fire_ln: 8.1.6 : tlx   =  1.000000000 1.000000000
 in fire_ln: 8.1.7 : int   =  1 1
 in fire_ln: 8.1.8 : i2,j2 = 216 199
 in fire_ln: 8.2 :  215 198
 in fire_ln: 8.3 :  215 198
 in fire_ln: 8.3.1 :  216 199
 in fire_ln: 8.3.2 :  216 198
 in fire_ln: 8.4 :  215 198
 in fire_ln: 8.5 :  215 198
 in fire_ln: 8.5.1 :  215 198
 in fire_ln: 8.5.2 :  215 198
 in fire_ln: 8.5.3 :  215 198
 in fire_ln: 8.5.4 :  215 198
 in fire_ln: 8.5.5 :  215 198
 in fire_ln: 8.5.5 : ncod( 214 198 ) =  2 1
 in fire_ln: 8.5.5 : ncod( 216 198 ) =  3 1
 in fire_ln: 8.5.5 : xcd( 215 198 1 ) =  -0.5000000000
 in fire_ln: 8.5.5 : xcd( 216 198 3 ) =  0.2394653559
 in fire_ln: 8.5.5 : i2-i  =  1
 in fire_ln: 8.5.5 : ycd( 215 198 1 ) =  0.6649315357E-01
 in fire_ln: 8.5.5 : ycd( 216 198 3 ) =  0.5000000000
 in fire_ln: 8.5.5 : j2-j  =  0
 in fire_ln: 8.5.5 : xcd( 215 198 2 ) =  0.5000000000
 in fire_ln: 8.5.5 : xcd( 214 198 1 ) =  -0.5000000000
 in fire_ln: 8.5.5 : i1-i  =  -1
 in fire_ln: 8.5.5 : ycd( 215 198 2 ) =  0.2835786939
 in fire_ln: 8.5.5 : ycd( 214 198 1 ) =  -0.7648497820E-01
 in fire_ln: 8.5.5 : j1-j  =  0
 in fire_ln: 8.5.6 :  215 198
 in fire_ln: 8.6 :  215 198
 in fire_ln: 8.7 :  215 198
 in fire_ln: 8.8 :  215 198
 in fire_ln: 8.9 :  215 198
 in fire_ln: 8.10 :  215 198
 in fire_ln: 8.1 :  216 198
 in fire_ln: 8.1.1 : nh0   =  3
 in fire_ln: 8.1.2 : nct   =  1
 in fire_ln: 8.1.3 : icls  =  4
 in fire_ln: 8.1.4 : itt   =  3
 in fire_ln: 8.1.5 : i,j   =  216 198
 in fire_ln: 8.1.6 : tlx   =  1.000000000 1.000000000
 in fire_ln: 8.1.7 : int   =  1 1
 in fire_ln: 8.1.8 : i2,j2 = 217 199
 in fire_ln: 8.2 :  216 198
 in fire_ln: 8.3 :  216 198
 in fire_ln: 8.3.1 :  217 199
 in fire_ln: 8.3.2 :  216 199
 in fire_ln: 8.4 :  216 198
 in fire_ln: 8.5 :  216 198
 in fire_ln: 8.5.1 :  216 198
 in fire_ln: 8.5.2 :  216 198
 in fire_ln: 8.5.3 :  216 198
 in fire_ln: 8.5.4 :  216 198
 in fire_ln: 8.5.5 :  216 198
 in fire_ln: 8.5.5 : ncod( 215 198 ) =  2 1
 in fire_ln: 8.5.5 : ncod( 216 199 ) =  3 1
 in fire_ln: 8.5.5 : xcd( 216 198 1 ) =  -0.5000000000
 in fire_ln: 8.5.5 : xcd( 216 199 3 ) =  0.5000000000
 in fire_ln: 8.5.5 : i2-i  =  0
 in fire_ln: 8.5.5 : ycd( 216 198 1 ) =  0.2835786939
 in fire_ln: 8.5.5 : ycd( 216 199 3 ) =  -0.4217160344
 in fire_ln: 8.5.5 : j2-j  =  1
 in fire_ln: 8.5.5 : xcd( 216 198 3 ) =  0.2394653559
 in fire_ln: 8.5.5 : xcd( 215 198 1 ) =  -0.5000000000
 in fire_ln: 8.5.5 : i1-i  =  -1
 in fire_ln: 8.5.5 : ycd( 216 198 3 ) =  0.5000000000
 in fire_ln: 8.5.5 : ycd( 215 198 1 ) =  0.6649315357E-01
 in fire_ln: 8.5.5 : j1-j  =  0
 in fire_ln: 8.5.6 :  216 198
 in fire_ln: 8.6 :  216 198
 in fire_ln: 8.7 :  216 198
 in fire_ln: 8.8 :  216 198
 in fire_ln: 8.9 :  216 198
 in fire_ln: 8.10 :  216 198
 in fire_ln: 8.1 :  205 199
 in fire_ln: 8.1.1 : nh0   =  3
 in fire_ln: 8.1.2 : nct   =  1
 in fire_ln: 8.1.3 : icls  =  4
 in fire_ln: 8.1.4 : itt   =  3
 in fire_ln: 8.1.5 : i,j   =  205 199
 in fire_ln: 8.1.6 : tlx   =  1.000000000 1.000000000
 in fire_ln: 8.1.7 : int   =  1 1
 in fire_ln: 8.1.8 : i2,j2 = 206 200
 in fire_ln: 8.2 :  205 199
 in fire_ln: 8.3 :  205 199
 in fire_ln: 8.3.1 :  206 200
 in fire_ln: 8.3.2 :  206 199
 in fire_ln: 8.4 :  205 199
 in fire_ln: 8.5 :  205 199
 in fire_ln: 8.5.1 :  205 199
 in fire_ln: 8.5.2 :  205 199
 in fire_ln: 8.5.3 :  205 199
 in fire_ln: 8.5.4 :  205 199
 in fire_ln: 8.5.5 :  205 199
 in fire_ln: 8.5.5 : ncod( 205 200 ) =  3 1
 in fire_ln: 8.5.5 : ncod( 206 199 ) =  2 1
 in fire_ln: 8.5.5 : xcd( 205 199 1 ) =  0.3622482419
 in fire_ln: 8.5.5 : xcd( 206 199 2 ) =  0.5000000000
 in fire_ln: 8.5.5 : i2-i  =  1
 in fire_ln: 8.5.5 : ycd( 205 199 1 ) =  0.5000000000
 in fire_ln: 8.5.5 : ycd( 206 199 2 ) =  -0.4271763563E-01
 in fire_ln: 8.5.5 : j2-j  =  0
 in fire_ln: 8.5.5 : xcd( 205 199 3 ) =  0.5000000000
 in fire_ln: 8.5.5 : xcd( 205 200 1 ) =  -0.5000000000
 in fire_ln: 8.5.5 : i1-i  =  0
 in fire_ln: 8.5.5 : ycd( 205 199 3 ) =  0.4247756600
 in fire_ln: 8.5.5 : ycd( 205 200 1 ) =  -0.3329455853E-02
 in fire_ln: 8.5.5 : j1-j  =  1
 in fire_ln: 8.5.6 :  205 199
 in fire_ln: 8.6 :  205 199
 in fire_ln: 8.7 :  205 199
 in fire_ln: 8.8 :  205 199
 in fire_ln: 8.9 :  205 199
 in fire_ln: 8.10 :  205 199
 in fire_ln: 8.1 :  206 199
 in fire_ln: 8.1.1 : nh0   =  2
 in fire_ln: 8.1.2 : nct   =  2
 in fire_ln: 8.1.3 : icls  =  2
 in fire_ln: 8.1.4 : itt   =  2
 in fire_ln: 8.1.5 : i,j   =  206 199
 in fire_ln: 8.1.6 : tlx   =  1.000000000 -1.000000000
 in fire_ln: 8.1.7 : int   =  1 -1
 in fire_ln: 8.1.8 : i2,j2 = 207 198
 in fire_ln: 8.2 :  206 199
 in fire_ln: 8.3 :  206 199
 in fire_ln: 8.3.1 :  207 198
 in fire_ln: 8.3.2 :  207 199
 in fire_ln: 8.4 :  206 199
 in fire_ln: 8.5 :  206 199
 in fire_ln: 8.5.1 :  206 199
 in fire_ln: 8.5.2 :  206 199
 in fire_ln: 8.5.3 :  206 199
 in fire_ln: 8.5.4 :  206 199
 in fire_ln: 8.5.5 :  206 199
 in fire_ln: 8.5.5 : ncod( 205 199 ) =  3 1
 in fire_ln: 8.5.5 : ncod( 207 199 ) =  2 1
 in fire_ln: 8.5.5 : xcd( 206 199 1 ) =  -0.5000000000
 in fire_ln: 8.5.5 : xcd( 207 199 2 ) =  0.5000000000
 in fire_ln: 8.5.5 : i2-i  =  1
 in fire_ln: 8.5.5 : ycd( 206 199 1 ) =  0.4247756600
 in fire_ln: 8.5.5 : ycd( 207 199 2 ) =  -0.4217160344
 in fire_ln: 8.5.5 : j2-j  =  0
 in fire_ln: 8.5.5 : xcd( 206 199 2 ) =  0.5000000000
 in fire_ln: 8.5.5 : xcd( 205 199 1 ) =  0.3622482419
 in fire_ln: 8.5.5 : i1-i  =  -1
 in fire_ln: 8.5.5 : ycd( 206 199 2 ) =  -0.4271763563E-01
 in fire_ln: 8.5.5 : ycd( 205 199 1 ) =  0.5000000000
 in fire_ln: 8.5.5 : j1-j  =  0
 in fire_ln: 8.5.6 :  206 199
 in fire_ln: 8.6 :  206 199
 in fire_ln: 8.7 :  206 199
 in fire_ln: 8.8 :  206 199
 in fire_ln: 8.9 :  206 199
 in fire_ln: 8.10 :  206 199
 in fire_ln: 8.1 :  207 199
 in fire_ln: 8.1.1 : nh0   =  2
 in fire_ln: 8.1.2 : nct   =  2
 in fire_ln: 8.1.3 : icls  =  2
 in fire_ln: 8.1.4 : itt   =  2
 in fire_ln: 8.1.5 : i,j   =  207 199
 in fire_ln: 8.1.6 : tlx   =  1.000000000 -1.000000000
 in fire_ln: 8.1.7 : int   =  1 -1
 in fire_ln: 8.1.8 : i2,j2 = 208 198
 in fire_ln: 8.2 :  207 199
 in fire_ln: 8.3 :  207 199
 in fire_ln: 8.3.1 :  208 198
 in fire_ln: 8.3.2 :  208 199
 in fire_ln: 8.4 :  207 199
 in fire_ln: 8.5 :  207 199
 in fire_ln: 8.5.1 :  207 199
 in fire_ln: 8.5.2 :  207 199
 in fire_ln: 8.5.3 :  207 199
 in fire_ln: 8.5.4 :  207 199
 in fire_ln: 8.5.5 :  207 199
 in fire_ln: 8.5.5 : ncod( 206 199 ) =  2 1
 in fire_ln: 8.5.5 : ncod( 208 199 ) =  3 1
 in fire_ln: 8.5.5 : xcd( 207 199 1 ) =  -0.5000000000
 in fire_ln: 8.5.5 : xcd( 208 199 3 ) =  -0.2394653559
 in fire_ln: 8.5.5 : i2-i  =  1
 in fire_ln: 8.5.5 : ycd( 207 199 1 ) =  -0.4271763563E-01
 in fire_ln: 8.5.5 : ycd( 208 199 3 ) =  -0.5000000000
 in fire_ln: 8.5.5 : j2-j  =  0
 in fire_ln: 8.5.5 : xcd( 207 199 2 ) =  0.5000000000
 in fire_ln: 8.5.5 : xcd( 206 199 1 ) =  -0.5000000000
 in fire_ln: 8.5.5 : i1-i  =  -1
 in fire_ln: 8.5.5 : ycd( 207 199 2 ) =  -0.4217160344
 in fire_ln: 8.5.5 : ycd( 206 199 1 ) =  0.4247756600
 in fire_ln: 8.5.5 : j1-j  =  0
 in fire_ln: 8.5.6 :  207 199
 in fire_ln: 8.6 :  207 199
 in fire_ln: 8.7 :  207 199
 in fire_ln: 8.8 :  207 199
 in fire_ln: 8.9 :  207 199
 in fire_ln: 8.10 :  207 199
 in fire_ln: 8.1 :  208 199
 in fire_ln: 8.1.1 : nh0   =  3
 in fire_ln: 8.1.2 : nct   =  3
 in fire_ln: 8.1.3 : icls  =  2
 in fire_ln: 8.1.4 : itt   =  3
 in fire_ln: 8.1.5 : i,j   =  208 199
 in fire_ln: 8.1.6 : tlx   =  -1.000000000 -1.000000000
 in fire_ln: 8.1.7 : int   =  -1 -1
 in fire_ln: 8.1.8 : i2,j2 = 207 198
 in fire_ln: 8.2 :  208 199
 in fire_ln: 8.3 :  208 199
 in fire_ln: 8.3.1 :  207 198
 in fire_ln: 8.3.2 :  208 198
 in fire_ln: 8.4 :  208 199
 in fire_ln: 8.5 :  208 199
 in fire_ln: 8.5.1 :  208 199
 in fire_ln: 8.5.2 :  208 199
 in fire_ln: 8.5.3 :  208 199
 in fire_ln: 8.5.4 :  208 199
 in fire_ln: 8.5.5 :  208 199
 in fire_ln: 8.5.5 : ncod( 207 199 ) =  2 1
 in fire_ln: 8.5.5 : ncod( 208 198 ) =  3 1
 in fire_ln: 8.5.5 : xcd( 208 199 1 ) =  -0.5000000000
 in fire_ln: 8.5.5 : xcd( 208 198 3 ) =  0.5000000000
 in fire_ln: 8.5.5 : i2-i  =  0
 in fire_ln: 8.5.5 : ycd( 208 199 1 ) =  -0.4217160344
 in fire_ln: 8.5.5 : ycd( 208 198 3 ) =  0.2835786939
 in fire_ln: 8.5.5 : j2-j  =  -1
 in fire_ln: 8.5.5 : xcd( 208 199 3 ) =  -0.2394653559
 in fire_ln: 8.5.5 : xcd( 207 199 1 ) =  -0.5000000000
 in fire_ln: 8.5.5 : i1-i  =  -1
 in fire_ln: 8.5.5 : ycd( 208 199 3 ) =  -0.5000000000
 in fire_ln: 8.5.5 : ycd( 207 199 1 ) =  -0.4271763563E-01
 in fire_ln: 8.5.5 : j1-j  =  0
 in fire_ln: 8.5.6 :  208 199
 in fire_ln: 8.6 :  208 199
 in fire_ln: 8.7 :  208 199
 in fire_ln: 8.8 :  208 199
 in fire_ln: 8.9 :  208 199
 in fire_ln: 8.10 :  208 199
 in fire_ln: 8.1 :  216 199
 in fire_ln: 8.1.1 : nh0   =  3
 in fire_ln: 8.1.2 : nct   =  3
 in fire_ln: 8.1.3 : icls  =  2
 in fire_ln: 8.1.4 : itt   =  3
 in fire_ln: 8.1.5 : i,j   =  216 199
 in fire_ln: 8.1.6 : tlx   =  1.000000000 -1.000000000
 in fire_ln: 8.1.7 : int   =  1 -1
 in fire_ln: 8.1.8 : i2,j2 = 217 198
 in fire_ln: 8.2 :  216 199
 in fire_ln: 8.3 :  216 199
 in fire_ln: 8.3.1 :  217 198
 in fire_ln: 8.3.2 :  217 199
 in fire_ln: 8.4 :  216 199
 in fire_ln: 8.5 :  216 199
 in fire_ln: 8.5.1 :  216 199
 in fire_ln: 8.5.2 :  216 199
 in fire_ln: 8.5.3 :  216 199
 in fire_ln: 8.5.4 :  216 199
 in fire_ln: 8.5.5 :  216 199
 in fire_ln: 8.5.5 : ncod( 216 198 ) =  3 1
 in fire_ln: 8.5.5 : ncod( 217 199 ) =  2 1
 in fire_ln: 8.5.5 : xcd( 216 199 1 ) =  0.2394653559
 in fire_ln: 8.5.5 : xcd( 217 199 2 ) =  0.5000000000
 in fire_ln: 8.5.5 : i2-i  =  1
 in fire_ln: 8.5.5 : ycd( 216 199 1 ) =  -0.5000000000
 in fire_ln: 8.5.5 : ycd( 217 199 2 ) =  -0.4271763563E-01
 in fire_ln: 8.5.5 : j2-j  =  0
 in fire_ln: 8.5.5 : xcd( 216 199 3 ) =  0.5000000000
 in fire_ln: 8.5.5 : xcd( 216 198 1 ) =  -0.5000000000
 in fire_ln: 8.5.5 : i1-i  =  0
 in fire_ln: 8.5.5 : ycd( 216 199 3 ) =  -0.4217160344
 in fire_ln: 8.5.5 : ycd( 216 198 1 ) =  0.2835786939
 in fire_ln: 8.5.5 : j1-j  =  -1
 in fire_ln: 8.5.6 :  216 199
 in fire_ln: 8.6 :  216 199
 in fire_ln: 8.7 :  216 199
 in fire_ln: 8.8 :  216 199
 in fire_ln: 8.9 :  216 199
 in fire_ln: 8.10 :  216 199
 in fire_ln: 8.1 :  217 199
 in fire_ln: 8.1.1 : nh0   =  2
 in fire_ln: 8.1.2 : nct   =  2
 in fire_ln: 8.1.3 : icls  =  2
 in fire_ln: 8.1.4 : itt   =  2
 in fire_ln: 8.1.5 : i,j   =  217 199
 in fire_ln: 8.1.6 : tlx   =  1.000000000 -1.000000000
 in fire_ln: 8.1.7 : int   =  1 -1
 in fire_ln: 8.1.8 : i2,j2 = 218 198
 in fire_ln: 8.2 :  217 199
 in fire_ln: 8.3 :  217 199
 in fire_ln: 8.3.1 :  218 198
 in fire_ln: 8.3.2 :  218 199
 in fire_ln: 8.4 :  217 199
 in fire_ln: 8.5 :  217 199
 in fire_ln: 8.5.1 :  217 199
 in fire_ln: 8.5.2 :  217 199
 in fire_ln: 8.5.3 :  217 199
 in fire_ln: 8.5.4 :  217 199
 in fire_ln: 8.5.5 :  217 199
 in fire_ln: 8.5.5 : ncod( 216 199 ) =  3 1
 in fire_ln: 8.5.5 : ncod( 218 199 ) =  2 1
 in fire_ln: 8.5.5 : xcd( 217 199 1 ) =  -0.5000000000
 in fire_ln: 8.5.5 : xcd( 218 199 2 ) =  0.5000000000
 in fire_ln: 8.5.5 : i2-i  =  1
 in fire_ln: 8.5.5 : ycd( 217 199 1 ) =  -0.4217160344
 in fire_ln: 8.5.5 : ycd( 218 199 2 ) =  0.4247756600
 in fire_ln: 8.5.5 : j2-j  =  0
 in fire_ln: 8.5.5 : xcd( 217 199 2 ) =  0.5000000000
 in fire_ln: 8.5.5 : xcd( 216 199 1 ) =  0.2394653559
 in fire_ln: 8.5.5 : i1-i  =  -1
 in fire_ln: 8.5.5 : ycd( 217 199 2 ) =  -0.4271763563E-01
 in fire_ln: 8.5.5 : ycd( 216 199 1 ) =  -0.5000000000
 in fire_ln: 8.5.5 : j1-j  =  0
 in fire_ln: 8.5.6 :  217 199
 in fire_ln: 8.6 :  217 199
 in fire_ln: 8.7 :  217 199
 in fire_ln: 8.8 :  217 199
 in fire_ln: 8.9 :  217 199
 in fire_ln: 8.10 :  217 199
 in fire_ln: 8.1 :  218 199
 in fire_ln: 8.1.1 : nh0   =  2
 in fire_ln: 8.1.2 : nct   =  2
 in fire_ln: 8.1.3 : icls  =  2
 in fire_ln: 8.1.4 : itt   =  2
 in fire_ln: 8.1.5 : i,j   =  218 199
 in fire_ln: 8.1.6 : tlx   =  1.000000000 1.000000000
 in fire_ln: 8.1.7 : int   =  1 1
 in fire_ln: 8.1.8 : i2,j2 = 219 200
 in fire_ln: 8.2 :  218 199
 in fire_ln: 8.3 :  218 199
 in fire_ln: 8.3.1 :  219 200
 in fire_ln: 8.3.2 :  219 199
 in fire_ln: 8.4 :  218 199
 in fire_ln: 8.5 :  218 199
 in fire_ln: 8.5.1 :  218 199
 in fire_ln: 8.5.2 :  218 199
 in fire_ln: 8.5.3 :  218 199
 in fire_ln: 8.5.4 :  218 199
 in fire_ln: 8.5.5 :  218 199
 in fire_ln: 8.5.5 : ncod( 217 199 ) =  2 1
 in fire_ln: 8.5.5 : ncod( 219 199 ) =  3 1
 in fire_ln: 8.5.5 : xcd( 218 199 1 ) =  -0.5000000000
 in fire_ln: 8.5.5 : xcd( 219 199 3 ) =  -0.3622482419
 in fire_ln: 8.5.5 : i2-i  =  1
 in fire_ln: 8.5.5 : ycd( 218 199 1 ) =  -0.4271763563E-01
 in fire_ln: 8.5.5 : ycd( 219 199 3 ) =  0.5000000000
 in fire_ln: 8.5.5 : j2-j  =  0
 in fire_ln: 8.5.5 : xcd( 218 199 2 ) =  0.5000000000
 in fire_ln: 8.5.5 : xcd( 217 199 1 ) =  -0.5000000000
 in fire_ln: 8.5.5 : i1-i  =  -1
 in fire_ln: 8.5.5 : ycd( 218 199 2 ) =  0.4247756600
 in fire_ln: 8.5.5 : ycd( 217 199 1 ) =  -0.4217160344
 in fire_ln: 8.5.5 : j1-j  =  0
 in fire_ln: 8.5.6 :  218 199
 in fire_ln: 8.6 :  218 199
 in fire_ln: 8.7 :  218 199
 in fire_ln: 8.8 :  218 199
 in fire_ln: 8.9 :  218 199
 in fire_ln: 8.10 :  218 199
 in fire_ln: 8.1 :  219 199
 in fire_ln: 8.1.1 : nh0   =  3
 in fire_ln: 8.1.2 : nct   =  1
 in fire_ln: 8.1.3 : icls  =  4
 in fire_ln: 8.1.4 : itt   =  3
 in fire_ln: 8.1.5 : i,j   =  219 199
 in fire_ln: 8.1.6 : tlx   =  -1.000000000 1.000000000
 in fire_ln: 8.1.7 : int   =  -1 1
 in fire_ln: 8.1.8 : i2,j2 = 218 200
 in fire_ln: 8.2 :  219 199
 in fire_ln: 8.3 :  219 199
 in fire_ln: 8.3.1 :  218 200
 in fire_ln: 8.3.2 :  219 200
 in fire_ln: 8.4 :  219 199
 in fire_ln: 8.5 :  219 199
 in fire_ln: 8.5.1 :  219 199
 in fire_ln: 8.5.2 :  219 199
 in fire_ln: 8.5.3 :  219 199
 in fire_ln: 8.5.4 :  219 199
 in fire_ln: 8.5.5 :  219 199
 in fire_ln: 8.5.5 : ncod( 218 199 ) =  2 1
 in fire_ln: 8.5.5 : ncod( 219 200 ) =  3 1
 in fire_ln: 8.5.5 : xcd( 219 199 1 ) =  -0.5000000000
 in fire_ln: 8.5.5 : xcd( 219 200 3 ) =  0.5000000000
 in fire_ln: 8.5.5 : i2-i  =  0
 in fire_ln: 8.5.5 : ycd( 219 199 1 ) =  0.4247756600
 in fire_ln: 8.5.5 : ycd( 219 200 3 ) =  -0.3329455853E-02
 in fire_ln: 8.5.5 : j2-j  =  1
 in fire_ln: 8.5.5 : xcd( 219 199 3 ) =  -0.3622482419
 in fire_ln: 8.5.5 : xcd( 218 199 1 ) =  -0.5000000000
 in fire_ln: 8.5.5 : i1-i  =  -1
 in fire_ln: 8.5.5 : ycd( 219 199 3 ) =  0.5000000000
 in fire_ln: 8.5.5 : ycd( 218 199 1 ) =  -0.4271763563E-01
 in fire_ln: 8.5.5 : j1-j  =  0
 in fire_ln: 8.5.6 :  219 199
 in fire_ln: 8.6 :  219 199
 in fire_ln: 8.7 :  219 199
 in fire_ln: 8.8 :  219 199
 in fire_ln: 8.9 :  219 199
 in fire_ln: 8.10 :  219 199
 in fire_ln: 8.1 :  204 200
 in fire_ln: 8.1.1 : nh0   =  3
 in fire_ln: 8.1.2 : nct   =  1
 in fire_ln: 8.1.3 : icls  =  4
 in fire_ln: 8.1.4 : itt   =  3
 in fire_ln: 8.1.5 : i,j   =  204 200
 in fire_ln: 8.1.6 : tlx   =  1.000000000 -1.000000000
 in fire_ln: 8.1.7 : int   =  1 -1
 in fire_ln: 8.1.8 : i2,j2 = 205 199
 in fire_ln: 8.2 :  204 200
 in fire_ln: 8.3 :  204 200
 in fire_ln: 8.3.1 :  205 199
 in fire_ln: 8.3.2 :  205 200
 in fire_ln: 8.4 :  204 200
 in fire_ln: 8.5 :  204 200
 in fire_ln: 8.5.1 :  204 200
 in fire_ln: 8.5.2 :  204 200
 in fire_ln: 8.5.3 :  204 200
 in fire_ln: 8.5.4 :  204 200
 in fire_ln: 8.5.5 :  204 200
 in fire_ln: 8.5.5 : ncod( 204 201 ) =  3 1
 in fire_ln: 8.5.5 : ncod( 205 200 ) =  3 1
 in fire_ln: 8.5.5 : xcd( 204 200 1 ) =  -0.2476047873
 in fire_ln: 8.5.5 : xcd( 205 200 3 ) =  0.3622482419
 in fire_ln: 8.5.5 : i2-i  =  1
 in fire_ln: 8.5.5 : ycd( 204 200 1 ) =  0.5000000000
 in fire_ln: 8.5.5 : ycd( 205 200 3 ) =  -0.5000000000
 in fire_ln: 8.5.5 : j2-j  =  0
 in fire_ln: 8.5.5 : xcd( 204 200 3 ) =  0.5000000000
 in fire_ln: 8.5.5 : xcd( 204 201 1 ) =  -0.5000000000
 in fire_ln: 8.5.5 : i1-i  =  0
 in fire_ln: 8.5.5 : ycd( 204 200 3 ) =  -0.3329455853E-02
 in fire_ln: 8.5.5 : ycd( 204 201 1 ) =  -0.3178824186
 in fire_ln: 8.5.5 : j1-j  =  1
 in fire_ln: 8.5.6 :  204 200
 in fire_ln: 8.6 :  204 200
 in fire_ln: 8.7 :  204 200
 in fire_ln: 8.8 :  204 200
 in fire_ln: 8.9 :  204 200
 in fire_ln: 8.10 :  204 200
 in fire_ln: 8.1 :  205 200
 in fire_ln: 8.1.1 : nh0   =  3
 in fire_ln: 8.1.2 : nct   =  3
 in fire_ln: 8.1.3 : icls  =  2
 in fire_ln: 8.1.4 : itt   =  3
 in fire_ln: 8.1.5 : i,j   =  205 200
 in fire_ln: 8.1.6 : tlx   =  1.000000000 -1.000000000
 in fire_ln: 8.1.7 : int   =  1 -1
 in fire_ln: 8.1.8 : i2,j2 = 206 199
 in fire_ln: 8.2 :  205 200
 in fire_ln: 8.3 :  205 200
 in fire_ln: 8.3.1 :  206 199
 in fire_ln: 8.3.2 :  205 199
 in fire_ln: 8.4 :  205 200
 in fire_ln: 8.5 :  205 200
 in fire_ln: 8.5.1 :  205 200
 in fire_ln: 8.5.2 :  205 200
 in fire_ln: 8.5.3 :  205 200
 in fire_ln: 8.5.4 :  205 200
 in fire_ln: 8.5.5 :  205 200
 in fire_ln: 8.5.5 : ncod( 204 200 ) =  3 1
 in fire_ln: 8.5.5 : ncod( 205 199 ) =  3 1
 in fire_ln: 8.5.5 : xcd( 205 200 1 ) =  -0.5000000000
 in fire_ln: 8.5.5 : xcd( 205 199 3 ) =  0.5000000000
 in fire_ln: 8.5.5 : i2-i  =  0
 in fire_ln: 8.5.5 : ycd( 205 200 1 ) =  -0.3329455853E-02
 in fire_ln: 8.5.5 : ycd( 205 199 3 ) =  0.4247756600
 in fire_ln: 8.5.5 : j2-j  =  -1
 in fire_ln: 8.5.5 : xcd( 205 200 3 ) =  0.3622482419
 in fire_ln: 8.5.5 : xcd( 204 200 1 ) =  -0.2476047873
 in fire_ln: 8.5.5 : i1-i  =  -1
 in fire_ln: 8.5.5 : ycd( 205 200 3 ) =  -0.5000000000
 in fire_ln: 8.5.5 : ycd( 204 200 1 ) =  0.5000000000
 in fire_ln: 8.5.5 : j1-j  =  0
 in fire_ln: 8.5.6 :  205 200
 in fire_ln: 8.6 :  205 200
 in fire_ln: 8.7 :  205 200
 in fire_ln: 8.8 :  205 200
 in fire_ln: 8.9 :  205 200
 in fire_ln: 8.10 :  205 200
 in fire_ln: 8.1 :  219 200
 in fire_ln: 8.1.1 : nh0   =  3
 in fire_ln: 8.1.2 : nct   =  3
 in fire_ln: 8.1.3 : icls  =  2
 in fire_ln: 8.1.4 : itt   =  3
 in fire_ln: 8.1.5 : i,j   =  219 200
 in fire_ln: 8.1.6 : tlx   =  1.000000000 -1.000000000
 in fire_ln: 8.1.7 : int   =  1 -1
 in fire_ln: 8.1.8 : i2,j2 = 220 199
 in fire_ln: 8.2 :  219 200
 in fire_ln: 8.3 :  219 200
 in fire_ln: 8.3.1 :  220 199
 in fire_ln: 8.3.2 :  220 200
 in fire_ln: 8.4 :  219 200
 in fire_ln: 8.5 :  219 200
 in fire_ln: 8.5.1 :  219 200
 in fire_ln: 8.5.2 :  219 200
 in fire_ln: 8.5.3 :  219 200
 in fire_ln: 8.5.4 :  219 200
 in fire_ln: 8.5.5 :  219 200
 in fire_ln: 8.5.5 : ncod( 219 199 ) =  3 1
 in fire_ln: 8.5.5 : ncod( 220 200 ) =  3 1
 in fire_ln: 8.5.5 : xcd( 219 200 1 ) =  -0.3622482419
 in fire_ln: 8.5.5 : xcd( 220 200 3 ) =  0.2476047873
 in fire_ln: 8.5.5 : i2-i  =  1
 in fire_ln: 8.5.5 : ycd( 219 200 1 ) =  -0.5000000000
 in fire_ln: 8.5.5 : ycd( 220 200 3 ) =  0.5000000000
 in fire_ln: 8.5.5 : j2-j  =  0
 in fire_ln: 8.5.5 : xcd( 219 200 3 ) =  0.5000000000
 in fire_ln: 8.5.5 : xcd( 219 199 1 ) =  -0.5000000000
 in fire_ln: 8.5.5 : i1-i  =  0
 in fire_ln: 8.5.5 : ycd( 219 200 3 ) =  -0.3329455853E-02
 in fire_ln: 8.5.5 : ycd( 219 199 1 ) =  0.4247756600
 in fire_ln: 8.5.5 : j1-j  =  -1
 in fire_ln: 8.5.6 :  219 200
 in fire_ln: 8.6 :  219 200
 in fire_ln: 8.7 :  219 200
 in fire_ln: 8.8 :  219 200
 in fire_ln: 8.9 :  219 200
 in fire_ln: 8.10 :  219 200
 in fire_ln: 8.1 :  220 200
 in fire_ln: 8.1.1 : nh0   =  3
 in fire_ln: 8.1.2 : nct   =  1
 in fire_ln: 8.1.3 : icls  =  4
 in fire_ln: 8.1.4 : itt   =  3
 in fire_ln: 8.1.5 : i,j   =  220 200
 in fire_ln: 8.1.6 : tlx   =  1.000000000 1.000000000
 in fire_ln: 8.1.7 : int   =  1 1
 in fire_ln: 8.1.8 : i2,j2 = 221 201
 in fire_ln: 8.2 :  220 200
 in fire_ln: 8.3 :  220 200
 in fire_ln: 8.3.1 :  221 201
 in fire_ln: 8.3.2 :  220 201
 in fire_ln: 8.4 :  220 200
 in fire_ln: 8.5 :  220 200
 in fire_ln: 8.5.1 :  220 200
 in fire_ln: 8.5.2 :  220 200
 in fire_ln: 8.5.3 :  220 200
 in fire_ln: 8.5.4 :  220 200
 in fire_ln: 8.5.5 :  220 200
 in fire_ln: 8.5.5 : ncod( 219 200 ) =  3 1
 in fire_ln: 8.5.5 : ncod( 220 201 ) =  3 1
 in fire_ln: 8.5.5 : xcd( 220 200 1 ) =  -0.5000000000
 in fire_ln: 8.5.5 : xcd( 220 201 3 ) =  0.5000000000
 in fire_ln: 8.5.5 : i2-i  =  0
 in fire_ln: 8.5.5 : ycd( 220 200 1 ) =  -0.3329455853E-02
 in fire_ln: 8.5.5 : ycd( 220 201 3 ) =  -0.3178824186
 in fire_ln: 8.5.5 : j2-j  =  1
 in fire_ln: 8.5.5 : xcd( 220 200 3 ) =  0.2476047873
 in fire_ln: 8.5.5 : xcd( 219 200 1 ) =  -0.3622482419
 in fire_ln: 8.5.5 : i1-i  =  -1
 in fire_ln: 8.5.5 : ycd( 220 200 3 ) =  0.5000000000
 in fire_ln: 8.5.5 : ycd( 219 200 1 ) =  -0.5000000000
 in fire_ln: 8.5.5 : j1-j  =  0
 in fire_ln: 8.5.6 :  220 200
 in fire_ln: 8.6 :  220 200
 in fire_ln: 8.7 :  220 200
 in fire_ln: 8.8 :  220 200
 in fire_ln: 8.9 :  220 200
 in fire_ln: 8.10 :  220 200
 in fire_ln: 8.1 :  203 201
 in fire_ln: 8.1.1 : nh0   =  3
 in fire_ln: 8.1.2 : nct   =  1
 in fire_ln: 8.1.3 : icls  =  4
 in fire_ln: 8.1.4 : itt   =  3
 in fire_ln: 8.1.5 : i,j   =  203 201
 in fire_ln: 8.1.6 : tlx   =  1.000000000 -1.000000000
 in fire_ln: 8.1.7 : int   =  1 -1
 in fire_ln: 8.1.8 : i2,j2 = 204 200
 in fire_ln: 8.2 :  203 201
 in fire_ln: 8.3 :  203 201
 in fire_ln: 8.3.1 :  204 200
 in fire_ln: 8.3.2 :  204 201
 in fire_ln: 8.4 :  203 201
 in fire_ln: 8.5 :  203 201
 in fire_ln: 8.5.1 :  203 201
 in fire_ln: 8.5.2 :  203 201
 in fire_ln: 8.5.3 :  203 201
 in fire_ln: 8.5.4 :  203 201
 in fire_ln: 8.5.5 :  203 201
 in fire_ln: 8.5.5 : ncod( 203 202 ) =  3 1
 in fire_ln: 8.5.5 : ncod( 204 201 ) =  3 1
 in fire_ln: 8.5.5 : xcd( 203 201 1 ) =  -0.4945818186
 in fire_ln: 8.5.5 : xcd( 204 201 3 ) =  -0.2476047873
 in fire_ln: 8.5.5 : i2-i  =  1
 in fire_ln: 8.5.5 : ycd( 203 201 1 ) =  0.5000000000
 in fire_ln: 8.5.5 : ycd( 204 201 3 ) =  -0.5000000000
 in fire_ln: 8.5.5 : j2-j  =  0
 in fire_ln: 8.5.5 : xcd( 203 201 3 ) =  0.5000000000
 in fire_ln: 8.5.5 : xcd( 203 202 1 ) =  -0.5000000000
 in fire_ln: 8.5.5 : i1-i  =  0
 in fire_ln: 8.5.5 : ycd( 203 201 3 ) =  -0.3178824186
 in fire_ln: 8.5.5 : ycd( 203 202 1 ) =  -0.4951367378
 in fire_ln: 8.5.5 : j1-j  =  1
 in fire_ln: 8.5.6 :  203 201
 in fire_ln: 8.6 :  203 201
 in fire_ln: 8.7 :  203 201
 in fire_ln: 8.8 :  203 201
 in fire_ln: 8.9 :  203 201
 in fire_ln: 8.10 :  203 201
 in fire_ln: 8.1 :  204 201
 in fire_ln: 8.1.1 : nh0   =  3
 in fire_ln: 8.1.2 : nct   =  3
 in fire_ln: 8.1.3 : icls  =  2
 in fire_ln: 8.1.4 : itt   =  3
 in fire_ln: 8.1.5 : i,j   =  204 201
 in fire_ln: 8.1.6 : tlx   =  -1.000000000 -1.000000000
 in fire_ln: 8.1.7 : int   =  -1 -1
 in fire_ln: 8.1.8 : i2,j2 = 203 200
 in fire_ln: 8.2 :  204 201
 in fire_ln: 8.3 :  204 201
 in fire_ln: 8.3.1 :  203 200
 in fire_ln: 8.3.2 :  204 200
 in fire_ln: 8.4 :  204 201
 in fire_ln: 8.5 :  204 201
 in fire_ln: 8.5.1 :  204 201
 in fire_ln: 8.5.2 :  204 201
 in fire_ln: 8.5.3 :  204 201
 in fire_ln: 8.5.4 :  204 201
 in fire_ln: 8.5.5 :  204 201
 in fire_ln: 8.5.5 : ncod( 203 201 ) =  3 1
 in fire_ln: 8.5.5 : ncod( 204 200 ) =  3 1
 in fire_ln: 8.5.5 : xcd( 204 201 1 ) =  -0.5000000000
 in fire_ln: 8.5.5 : xcd( 204 200 3 ) =  0.5000000000
 in fire_ln: 8.5.5 : i2-i  =  0
 in fire_ln: 8.5.5 : ycd( 204 201 1 ) =  -0.3178824186
 in fire_ln: 8.5.5 : ycd( 204 200 3 ) =  -0.3329455853E-02
 in fire_ln: 8.5.5 : j2-j  =  -1
 in fire_ln: 8.5.5 : xcd( 204 201 3 ) =  -0.2476047873
 in fire_ln: 8.5.5 : xcd( 203 201 1 ) =  -0.4945818186
 in fire_ln: 8.5.5 : i1-i  =  -1
 in fire_ln: 8.5.5 : ycd( 204 201 3 ) =  -0.5000000000
 in fire_ln: 8.5.5 : ycd( 203 201 1 ) =  0.5000000000
 in fire_ln: 8.5.5 : j1-j  =  0
 in fire_ln: 8.5.6 :  204 201
 in fire_ln: 8.6 :  204 201
 in fire_ln: 8.7 :  204 201
 in fire_ln: 8.8 :  204 201
 in fire_ln: 8.9 :  204 201
 in fire_ln: 8.10 :  204 201
 in fire_ln: 8.1 :  220 201
 in fire_ln: 8.1.1 : nh0   =  3
 in fire_ln: 8.1.2 : nct   =  3
 in fire_ln: 8.1.3 : icls  =  2
 in fire_ln: 8.1.4 : itt   =  3
 in fire_ln: 8.1.5 : i,j   =  220 201
 in fire_ln: 8.1.6 : tlx   =  1.000000000 -1.000000000
 in fire_ln: 8.1.7 : int   =  1 -1
 in fire_ln: 8.1.8 : i2,j2 = 221 200
 in fire_ln: 8.2 :  220 201
 in fire_ln: 8.3 :  220 201
 in fire_ln: 8.3.1 :  221 200
 in fire_ln: 8.3.2 :  221 201
 in fire_ln: 8.4 :  220 201
 in fire_ln: 8.5 :  220 201
 in fire_ln: 8.5.1 :  220 201
 in fire_ln: 8.5.2 :  220 201
 in fire_ln: 8.5.3 :  220 201
 in fire_ln: 8.5.4 :  220 201
 in fire_ln: 8.5.5 :  220 201
 in fire_ln: 8.5.5 : ncod( 220 200 ) =  3 1
 in fire_ln: 8.5.5 : ncod( 221 201 ) =  3 1
 in fire_ln: 8.5.5 : xcd( 220 201 1 ) =  0.2476047873
 in fire_ln: 8.5.5 : xcd( 221 201 3 ) =  0.4945818186
 in fire_ln: 8.5.5 : i2-i  =  1
 in fire_ln: 8.5.5 : ycd( 220 201 1 ) =  -0.5000000000
 in fire_ln: 8.5.5 : ycd( 221 201 3 ) =  0.5000000000
 in fire_ln: 8.5.5 : j2-j  =  0
 in fire_ln: 8.5.5 : xcd( 220 201 3 ) =  0.5000000000
 in fire_ln: 8.5.5 : xcd( 220 200 1 ) =  -0.5000000000
 in fire_ln: 8.5.5 : i1-i  =  0
 in fire_ln: 8.5.5 : ycd( 220 201 3 ) =  -0.3178824186
 in fire_ln: 8.5.5 : ycd( 220 200 1 ) =  -0.3329455853E-02
 in fire_ln: 8.5.5 : j1-j  =  -1
 in fire_ln: 8.5.6 :  220 201
 in fire_ln: 8.6 :  220 201
 in fire_ln: 8.7 :  220 201
 in fire_ln: 8.8 :  220 201
 in fire_ln: 8.9 :  220 201
 in fire_ln: 8.10 :  220 201
 in fire_ln: 8.1 :  221 201
 in fire_ln: 8.1.1 : nh0   =  3
 in fire_ln: 8.1.2 : nct   =  1
 in fire_ln: 8.1.3 : icls  =  4
 in fire_ln: 8.1.4 : itt   =  3
 in fire_ln: 8.1.5 : i,j   =  221 201
 in fire_ln: 8.1.6 : tlx   =  1.000000000 1.000000000
 in fire_ln: 8.1.7 : int   =  1 1
 in fire_ln: 8.1.8 : i2,j2 = 222 202
 in fire_ln: 8.2 :  221 201
 in fire_ln: 8.3 :  221 201
 in fire_ln: 8.3.1 :  222 202
 in fire_ln: 8.3.2 :  221 202
 in fire_ln: 8.4 :  221 201
 in fire_ln: 8.5 :  221 201
 in fire_ln: 8.5.1 :  221 201
 in fire_ln: 8.5.2 :  221 201
 in fire_ln: 8.5.3 :  221 201
 in fire_ln: 8.5.4 :  221 201
 in fire_ln: 8.5.5 :  221 201
 in fire_ln: 8.5.5 : ncod( 220 201 ) =  3 1
 in fire_ln: 8.5.5 : ncod( 221 202 ) =  3 1
 in fire_ln: 8.5.5 : xcd( 221 201 1 ) =  -0.5000000000
 in fire_ln: 8.5.5 : xcd( 221 202 3 ) =  0.5000000000
 in fire_ln: 8.5.5 : i2-i  =  0
 in fire_ln: 8.5.5 : ycd( 221 201 1 ) =  -0.3178824186
 in fire_ln: 8.5.5 : ycd( 221 202 3 ) =  -0.4951367378
 in fire_ln: 8.5.5 : j2-j  =  1
 in fire_ln: 8.5.5 : xcd( 221 201 3 ) =  0.4945818186
 in fire_ln: 8.5.5 : xcd( 220 201 1 ) =  0.2476047873
 in fire_ln: 8.5.5 : i1-i  =  -1
 in fire_ln: 8.5.5 : ycd( 221 201 3 ) =  0.5000000000
 in fire_ln: 8.5.5 : ycd( 220 201 1 ) =  -0.5000000000
 in fire_ln: 8.5.5 : j1-j  =  0
 in fire_ln: 8.5.6 :  221 201
 in fire_ln: 8.6 :  221 201
 in fire_ln: 8.7 :  221 201
 in fire_ln: 8.8 :  221 201
 in fire_ln: 8.9 :  221 201
 in fire_ln: 8.10 :  221 201
 in fire_ln: 8.1 :  202 202
 in fire_ln: 8.1.1 : nh0   =  3
 in fire_ln: 8.1.2 : nct   =  1
 in fire_ln: 8.1.3 : icls  =  4
 in fire_ln: 8.1.4 : itt   =  3
 in fire_ln: 8.1.5 : i,j   =  202 202
 in fire_ln: 8.1.6 : tlx   =  1.000000000 -1.000000000
 in fire_ln: 8.1.7 : int   =  1 -1
 in fire_ln: 8.1.8 : i2,j2 = 203 201
 in fire_ln: 8.2 :  202 202
 in fire_ln: 8.3 :  202 202
 in fire_ln: 8.3.1 :  203 201
 in fire_ln: 8.3.2 :  203 202
 in fire_ln: 8.4 :  202 202
 in fire_ln: 8.5 :  202 202
 in fire_ln: 8.5.1 :  202 202
 in fire_ln: 8.5.2 :  202 202
 in fire_ln: 8.5.3 :  202 202
 in fire_ln: 8.5.4 :  202 202
 in fire_ln: 8.5.5 :  202 202
 in fire_ln: 8.5.5 : ncod( 202 203 ) =  3 1
 in fire_ln: 8.5.5 : ncod( 203 202 ) =  3 1
 in fire_ln: 8.5.5 : xcd( 202 202 1 ) =  -0.4951367378
 in fire_ln: 8.5.5 : xcd( 203 202 3 ) =  -0.4945818186
 in fire_ln: 8.5.5 : i2-i  =  1
 in fire_ln: 8.5.5 : ycd( 202 202 1 ) =  0.5000000000
 in fire_ln: 8.5.5 : ycd( 203 202 3 ) =  -0.5000000000
 in fire_ln: 8.5.5 : j2-j  =  0
 in fire_ln: 8.5.5 : xcd( 202 202 3 ) =  0.5000000000
 in fire_ln: 8.5.5 : xcd( 202 203 1 ) =  -0.5000000000
 in fire_ln: 8.5.5 : i1-i  =  0
 in fire_ln: 8.5.5 : ycd( 202 202 3 ) =  -0.4951367378
 in fire_ln: 8.5.5 : ycd( 202 203 1 ) =  -0.4945818186
 in fire_ln: 8.5.5 : j1-j  =  1
 in fire_ln: 8.5.6 :  202 202
 in fire_ln: 8.6 :  202 202
 in fire_ln: 8.7 :  202 202
 in fire_ln: 8.8 :  202 202
 in fire_ln: 8.9 :  202 202
 in fire_ln: 8.10 :  202 202
 in fire_ln: 8.1 :  203 202
 in fire_ln: 8.1.1 : nh0   =  3
 in fire_ln: 8.1.2 : nct   =  3
 in fire_ln: 8.1.3 : icls  =  2
 in fire_ln: 8.1.4 : itt   =  2
 in fire_ln: 8.1.5 : i,j   =  203 202
 in fire_ln: 8.1.6 : tlx   =  -1.000000000 -1.000000000
 in fire_ln: 8.1.7 : int   =  -1 -1
 in fire_ln: 8.1.8 : i2,j2 = 202 201
 in fire_ln: 8.2 :  203 202
 in fire_ln: 8.3 :  203 202
 in fire_ln: 8.3.1 :  202 201
 in fire_ln: 8.3.2 :  203 201
 in fire_ln: 8.4 :  203 202
 in fire_ln: 8.5 :  203 202
 in fire_ln: 8.5.1 :  203 202
 in fire_ln: 8.5.2 :  203 202
 in fire_ln: 8.5.3 :  203 202
 in fire_ln: 8.5.4 :  203 202
 in fire_ln: 8.5.5 :  203 202
 in fire_ln: 8.5.5 : ncod( 202 202 ) =  3 1
 in fire_ln: 8.5.5 : ncod( 203 201 ) =  3 1
 in fire_ln: 8.5.5 : xcd( 203 202 1 ) =  -0.5000000000
 in fire_ln: 8.5.5 : xcd( 203 201 3 ) =  0.5000000000
 in fire_ln: 8.5.5 : i2-i  =  0
 in fire_ln: 8.5.5 : ycd( 203 202 1 ) =  -0.4951367378
 in fire_ln: 8.5.5 : ycd( 203 201 3 ) =  -0.3178824186
 in fire_ln: 8.5.5 : j2-j  =  -1
 in fire_ln: 8.5.5 : xcd( 203 202 3 ) =  -0.4945818186
 in fire_ln: 8.5.5 : xcd( 202 202 1 ) =  -0.4951367378
 in fire_ln: 8.5.5 : i1-i  =  -1
 in fire_ln: 8.5.5 : ycd( 203 202 3 ) =  -0.5000000000
 in fire_ln: 8.5.5 : ycd( 202 202 1 ) =  0.5000000000
 in fire_ln: 8.5.5 : j1-j  =  0
 in fire_ln: 8.5.6 :  203 202
 in fire_ln: 8.6 :  203 202
 in fire_ln: 8.7 :  203 202
 in fire_ln: 8.8 :  203 202
 in fire_ln: 8.9 :  203 202
 in fire_ln: 8.10 :  203 202
 in fire_ln: 8.1 :  221 202
 in fire_ln: 8.1.1 : nh0   =  3
 in fire_ln: 8.1.2 : nct   =  3
 in fire_ln: 8.1.3 : icls  =  2
 in fire_ln: 8.1.4 : itt   =  2
 in fire_ln: 8.1.5 : i,j   =  221 202
 in fire_ln: 8.1.6 : tlx   =  1.000000000 -1.000000000
 in fire_ln: 8.1.7 : int   =  1 -1
 in fire_ln: 8.1.8 : i2,j2 = 222 201
 in fire_ln: 8.2 :  221 202
 in fire_ln: 8.3 :  221 202
 in fire_ln: 8.3.1 :  222 201
 in fire_ln: 8.3.2 :  222 202
 in fire_ln: 8.4 :  221 202
 in fire_ln: 8.5 :  221 202
 in fire_ln: 8.5.1 :  221 202
 in fire_ln: 8.5.2 :  221 202
 in fire_ln: 8.5.3 :  221 202
 in fire_ln: 8.5.4 :  221 202
 in fire_ln: 8.5.5 :  221 202
 in fire_ln: 8.5.5 : ncod( 221 201 ) =  3 1
 in fire_ln: 8.5.5 : ncod( 222 202 ) =  3 1
 in fire_ln: 8.5.5 : xcd( 221 202 1 ) =  0.4945818186
 in fire_ln: 8.5.5 : xcd( 222 202 3 ) =  0.4951367378
 in fire_ln: 8.5.5 : i2-i  =  1
 in fire_ln: 8.5.5 : ycd( 221 202 1 ) =  -0.5000000000
 in fire_ln: 8.5.5 : ycd( 222 202 3 ) =  0.5000000000
 in fire_ln: 8.5.5 : j2-j  =  0
 in fire_ln: 8.5.5 : xcd( 221 202 3 ) =  0.5000000000
 in fire_ln: 8.5.5 : xcd( 221 201 1 ) =  -0.5000000000
 in fire_ln: 8.5.5 : i1-i  =  0
 in fire_ln: 8.5.5 : ycd( 221 202 3 ) =  -0.4951367378
 in fire_ln: 8.5.5 : ycd( 221 201 1 ) =  -0.3178824186
 in fire_ln: 8.5.5 : j1-j  =  -1
 in fire_ln: 8.5.6 :  221 202
 in fire_ln: 8.6 :  221 202
 in fire_ln: 8.7 :  221 202
 in fire_ln: 8.8 :  221 202
 in fire_ln: 8.9 :  221 202
 in fire_ln: 8.10 :  221 202
 in fire_ln: 8.1 :  222 202
 in fire_ln: 8.1.1 : nh0   =  3
 in fire_ln: 8.1.2 : nct   =  1
 in fire_ln: 8.1.3 : icls  =  4
 in fire_ln: 8.1.4 : itt   =  3
 in fire_ln: 8.1.5 : i,j   =  222 202
 in fire_ln: 8.1.6 : tlx   =  1.000000000 1.000000000
 in fire_ln: 8.1.7 : int   =  1 1
 in fire_ln: 8.1.8 : i2,j2 = 223 203
 in fire_ln: 8.2 :  222 202
 in fire_ln: 8.3 :  222 202
 in fire_ln: 8.3.1 :  223 203
 in fire_ln: 8.3.2 :  222 203
 in fire_ln: 8.4 :  222 202
 in fire_ln: 8.5 :  222 202
 in fire_ln: 8.5.1 :  222 202
 in fire_ln: 8.5.2 :  222 202
 in fire_ln: 8.5.3 :  222 202
 in fire_ln: 8.5.4 :  222 202
 in fire_ln: 8.5.5 :  222 202
 in fire_ln: 8.5.5 : ncod( 221 202 ) =  3 1
 in fire_ln: 8.5.5 : ncod( 222 203 ) =  3 1
 in fire_ln: 8.5.5 : xcd( 222 202 1 ) =  -0.5000000000
 in fire_ln: 8.5.5 : xcd( 222 203 3 ) =  0.5000000000
 in fire_ln: 8.5.5 : i2-i  =  0
 in fire_ln: 8.5.5 : ycd( 222 202 1 ) =  -0.4951367378
 in fire_ln: 8.5.5 : ycd( 222 203 3 ) =  -0.4945818186
 in fire_ln: 8.5.5 : j2-j  =  1
 in fire_ln: 8.5.5 : xcd( 222 202 3 ) =  0.4951367378
 in fire_ln: 8.5.5 : xcd( 221 202 1 ) =  0.4945818186
 in fire_ln: 8.5.5 : i1-i  =  -1
 in fire_ln: 8.5.5 : ycd( 222 202 3 ) =  0.5000000000
 in fire_ln: 8.5.5 : ycd( 221 202 1 ) =  -0.5000000000
 in fire_ln: 8.5.5 : j1-j  =  0
 in fire_ln: 8.5.6 :  222 202
 in fire_ln: 8.6 :  222 202
 in fire_ln: 8.7 :  222 202
 in fire_ln: 8.8 :  222 202
 in fire_ln: 8.9 :  222 202
 in fire_ln: 8.10 :  222 202
 in fire_ln: 8.1 :  201 203
 in fire_ln: 8.1.1 : nh0   =  3
 in fire_ln: 8.1.2 : nct   =  1
 in fire_ln: 8.1.3 : icls  =  4
 in fire_ln: 8.1.4 : itt   =  3
 in fire_ln: 8.1.5 : i,j   =  201 203
 in fire_ln: 8.1.6 : tlx   =  1.000000000 -1.000000000
 in fire_ln: 8.1.7 : int   =  1 -1
 in fire_ln: 8.1.8 : i2,j2 = 202 202
 in fire_ln: 8.2 :  201 203
 in fire_ln: 8.3 :  201 203
 in fire_ln: 8.3.1 :  202 202
 in fire_ln: 8.3.2 :  202 203
 in fire_ln: 8.4 :  201 203
 in fire_ln: 8.5 :  201 203
 in fire_ln: 8.5.1 :  201 203
 in fire_ln: 8.5.2 :  201 203
 in fire_ln: 8.5.3 :  201 203
 in fire_ln: 8.5.4 :  201 203
 in fire_ln: 8.5.5 :  201 203
 in fire_ln: 8.5.5 : ncod( 201 204 ) =  3 1
 in fire_ln: 8.5.5 : ncod( 202 203 ) =  3 1
 in fire_ln: 8.5.5 : xcd( 201 203 1 ) =  -0.3178824186
 in fire_ln: 8.5.5 : xcd( 202 203 3 ) =  -0.4951367378
 in fire_ln: 8.5.5 : i2-i  =  1
 in fire_ln: 8.5.5 : ycd( 201 203 1 ) =  0.5000000000
 in fire_ln: 8.5.5 : ycd( 202 203 3 ) =  -0.5000000000
 in fire_ln: 8.5.5 : j2-j  =  0
 in fire_ln: 8.5.5 : xcd( 201 203 3 ) =  0.5000000000
 in fire_ln: 8.5.5 : xcd( 201 204 1 ) =  -0.5000000000
 in fire_ln: 8.5.5 : i1-i  =  0
 in fire_ln: 8.5.5 : ycd( 201 203 3 ) =  -0.4945818186
 in fire_ln: 8.5.5 : ycd( 201 204 1 ) =  -0.2476047873
 in fire_ln: 8.5.5 : j1-j  =  1
 in fire_ln: 8.5.6 :  201 203
 in fire_ln: 8.6 :  201 203
 in fire_ln: 8.7 :  201 203
 in fire_ln: 8.8 :  201 203
 in fire_ln: 8.9 :  201 203
 in fire_ln: 8.10 :  201 203
 in fire_ln: 8.1 :  202 203
 in fire_ln: 8.1.1 : nh0   =  3
 in fire_ln: 8.1.2 : nct   =  3
 in fire_ln: 8.1.3 : icls  =  2
 in fire_ln: 8.1.4 : itt   =  2
 in fire_ln: 8.1.5 : i,j   =  202 203
 in fire_ln: 8.1.6 : tlx   =  -1.000000000 -1.000000000
 in fire_ln: 8.1.7 : int   =  -1 -1
 in fire_ln: 8.1.8 : i2,j2 = 201 202
 in fire_ln: 8.2 :  202 203
 in fire_ln: 8.3 :  202 203
 in fire_ln: 8.3.1 :  201 202
 in fire_ln: 8.3.2 :  202 202
 in fire_ln: 8.4 :  202 203
 in fire_ln: 8.5 :  202 203
 in fire_ln: 8.5.1 :  202 203
 in fire_ln: 8.5.2 :  202 203
 in fire_ln: 8.5.3 :  202 203
 in fire_ln: 8.5.4 :  202 203
 in fire_ln: 8.5.5 :  202 203
 in fire_ln: 8.5.5 : ncod( 201 203 ) =  3 1
 in fire_ln: 8.5.5 : ncod( 202 202 ) =  3 1
 in fire_ln: 8.5.5 : xcd( 202 203 1 ) =  -0.5000000000
 in fire_ln: 8.5.5 : xcd( 202 202 3 ) =  0.5000000000
 in fire_ln: 8.5.5 : i2-i  =  0
 in fire_ln: 8.5.5 : ycd( 202 203 1 ) =  -0.4945818186
 in fire_ln: 8.5.5 : ycd( 202 202 3 ) =  -0.4951367378
 in fire_ln: 8.5.5 : j2-j  =  -1
 in fire_ln: 8.5.5 : xcd( 202 203 3 ) =  -0.4951367378
 in fire_ln: 8.5.5 : xcd( 201 203 1 ) =  -0.3178824186
 in fire_ln: 8.5.5 : i1-i  =  -1
 in fire_ln: 8.5.5 : ycd( 202 203 3 ) =  -0.5000000000
 in fire_ln: 8.5.5 : ycd( 201 203 1 ) =  0.5000000000
 in fire_ln: 8.5.5 : j1-j  =  0
 in fire_ln: 8.5.6 :  202 203
 in fire_ln: 8.6 :  202 203
 in fire_ln: 8.7 :  202 203
 in fire_ln: 8.8 :  202 203
 in fire_ln: 8.9 :  202 203
 in fire_ln: 8.10 :  202 203
 in fire_ln: 8.1 :  222 203
 in fire_ln: 8.1.1 : nh0   =  3
 in fire_ln: 8.1.2 : nct   =  3
 in fire_ln: 8.1.3 : icls  =  2
 in fire_ln: 8.1.4 : itt   =  2
 in fire_ln: 8.1.5 : i,j   =  222 203
 in fire_ln: 8.1.6 : tlx   =  1.000000000 -1.000000000
 in fire_ln: 8.1.7 : int   =  1 -1
 in fire_ln: 8.1.8 : i2,j2 = 223 202
 in fire_ln: 8.2 :  222 203
 in fire_ln: 8.3 :  222 203
 in fire_ln: 8.3.1 :  223 202
 in fire_ln: 8.3.2 :  223 203
 in fire_ln: 8.4 :  222 203
 in fire_ln: 8.5 :  222 203
 in fire_ln: 8.5.1 :  222 203
 in fire_ln: 8.5.2 :  222 203
 in fire_ln: 8.5.3 :  222 203
 in fire_ln: 8.5.4 :  222 203
 in fire_ln: 8.5.5 :  222 203
 in fire_ln: 8.5.5 : ncod( 222 202 ) =  3 1
 in fire_ln: 8.5.5 : ncod( 223 203 ) =  3 1
 in fire_ln: 8.5.5 : xcd( 222 203 1 ) =  0.4951367378
 in fire_ln: 8.5.5 : xcd( 223 203 3 ) =  0.3178824186
 in fire_ln: 8.5.5 : i2-i  =  1
 in fire_ln: 8.5.5 : ycd( 222 203 1 ) =  -0.5000000000
 in fire_ln: 8.5.5 : ycd( 223 203 3 ) =  0.5000000000
 in fire_ln: 8.5.5 : j2-j  =  0
 in fire_ln: 8.5.5 : xcd( 222 203 3 ) =  0.5000000000
 in fire_ln: 8.5.5 : xcd( 222 202 1 ) =  -0.5000000000
 in fire_ln: 8.5.5 : i1-i  =  0
 in fire_ln: 8.5.5 : ycd( 222 203 3 ) =  -0.4945818186
 in fire_ln: 8.5.5 : ycd( 222 202 1 ) =  -0.4951367378
 in fire_ln: 8.5.5 : j1-j  =  -1
 in fire_ln: 8.5.6 :  222 203
 in fire_ln: 8.6 :  222 203
 in fire_ln: 8.7 :  222 203
 in fire_ln: 8.8 :  222 203
 in fire_ln: 8.9 :  222 203
 in fire_ln: 8.10 :  222 203
 in fire_ln: 8.1 :  223 203
 in fire_ln: 8.1.1 : nh0   =  3
 in fire_ln: 8.1.2 : nct   =  1
 in fire_ln: 8.1.3 : icls  =  4
 in fire_ln: 8.1.4 : itt   =  3
 in fire_ln: 8.1.5 : i,j   =  223 203
 in fire_ln: 8.1.6 : tlx   =  1.000000000 1.000000000
 in fire_ln: 8.1.7 : int   =  1 1
 in fire_ln: 8.1.8 : i2,j2 = 224 204
 in fire_ln: 8.2 :  223 203
 in fire_ln: 8.3 :  223 203
 in fire_ln: 8.3.1 :  224 204
 in fire_ln: 8.3.2 :  223 204
 in fire_ln: 8.4 :  223 203
 in fire_ln: 8.5 :  223 203
 in fire_ln: 8.5.1 :  223 203
 in fire_ln: 8.5.2 :  223 203
 in fire_ln: 8.5.3 :  223 203
 in fire_ln: 8.5.4 :  223 203
 in fire_ln: 8.5.5 :  223 203
 in fire_ln: 8.5.5 : ncod( 222 203 ) =  3 1
 in fire_ln: 8.5.5 : ncod( 223 204 ) =  3 1
 in fire_ln: 8.5.5 : xcd( 223 203 1 ) =  -0.5000000000
 in fire_ln: 8.5.5 : xcd( 223 204 3 ) =  0.5000000000
 in fire_ln: 8.5.5 : i2-i  =  0
 in fire_ln: 8.5.5 : ycd( 223 203 1 ) =  -0.4945818186
 in fire_ln: 8.5.5 : ycd( 223 204 3 ) =  -0.2476047873
 in fire_ln: 8.5.5 : j2-j  =  1
 in fire_ln: 8.5.5 : xcd( 223 203 3 ) =  0.3178824186
 in fire_ln: 8.5.5 : xcd( 222 203 1 ) =  0.4951367378
 in fire_ln: 8.5.5 : i1-i  =  -1
 in fire_ln: 8.5.5 : ycd( 223 203 3 ) =  0.5000000000
 in fire_ln: 8.5.5 : ycd( 222 203 1 ) =  -0.5000000000
 in fire_ln: 8.5.5 : j1-j  =  0
 in fire_ln: 8.5.6 :  223 203
 in fire_ln: 8.6 :  223 203
 in fire_ln: 8.7 :  223 203
 in fire_ln: 8.8 :  223 203
 in fire_ln: 8.9 :  223 203
 in fire_ln: 8.10 :  223 203
 in fire_ln: 8.1 :  200 204
 in fire_ln: 8.1.1 : nh0   =  3
 in fire_ln: 8.1.2 : nct   =  1
 in fire_ln: 8.1.3 : icls  =  4
 in fire_ln: 8.1.4 : itt   =  3
 in fire_ln: 8.1.5 : i,j   =  200 204
 in fire_ln: 8.1.6 : tlx   =  1.000000000 -1.000000000
 in fire_ln: 8.1.7 : int   =  1 -1
 in fire_ln: 8.1.8 : i2,j2 = 201 203
 in fire_ln: 8.2 :  200 204
 in fire_ln: 8.3 :  200 204
 in fire_ln: 8.3.1 :  201 203
 in fire_ln: 8.3.2 :  201 204
 in fire_ln: 8.4 :  200 204
 in fire_ln: 8.5 :  200 204
 in fire_ln: 8.5.1 :  200 204
 in fire_ln: 8.5.2 :  200 204
 in fire_ln: 8.5.3 :  200 204
 in fire_ln: 8.5.4 :  200 204
 in fire_ln: 8.5.5 :  200 204
 in fire_ln: 8.5.5 : ncod( 200 205 ) =  3 1
 in fire_ln: 8.5.5 : ncod( 201 204 ) =  3 1
 in fire_ln: 8.5.5 : xcd( 200 204 1 ) =  -0.3329455853E-02
 in fire_ln: 8.5.5 : xcd( 201 204 3 ) =  -0.3178824186
 in fire_ln: 8.5.5 : i2-i  =  1
 in fire_ln: 8.5.5 : ycd( 200 204 1 ) =  0.5000000000
 in fire_ln: 8.5.5 : ycd( 201 204 3 ) =  -0.5000000000
 in fire_ln: 8.5.5 : j2-j  =  0
 in fire_ln: 8.5.5 : xcd( 200 204 3 ) =  0.5000000000
 in fire_ln: 8.5.5 : xcd( 200 205 1 ) =  -0.5000000000
 in fire_ln: 8.5.5 : i1-i  =  0
 in fire_ln: 8.5.5 : ycd( 200 204 3 ) =  -0.2476047873
 in fire_ln: 8.5.5 : ycd( 200 205 1 ) =  0.3622482419
 in fire_ln: 8.5.5 : j1-j  =  1
 in fire_ln: 8.5.6 :  200 204
 in fire_ln: 8.6 :  200 204
 in fire_ln: 8.7 :  200 204
 in fire_ln: 8.8 :  200 204
 in fire_ln: 8.9 :  200 204
 in fire_ln: 8.10 :  200 204
 in fire_ln: 8.1 :  201 204
 in fire_ln: 8.1.1 : nh0   =  3
 in fire_ln: 8.1.2 : nct   =  3
 in fire_ln: 8.1.3 : icls  =  2
 in fire_ln: 8.1.4 : itt   =  3
 in fire_ln: 8.1.5 : i,j   =  201 204
 in fire_ln: 8.1.6 : tlx   =  -1.000000000 -1.000000000
 in fire_ln: 8.1.7 : int   =  -1 -1
 in fire_ln: 8.1.8 : i2,j2 = 200 203
 in fire_ln: 8.2 :  201 204
 in fire_ln: 8.3 :  201 204
 in fire_ln: 8.3.1 :  200 203
 in fire_ln: 8.3.2 :  201 203
 in fire_ln: 8.4 :  201 204
 in fire_ln: 8.5 :  201 204
 in fire_ln: 8.5.1 :  201 204
 in fire_ln: 8.5.2 :  201 204
 in fire_ln: 8.5.3 :  201 204
 in fire_ln: 8.5.4 :  201 204
 in fire_ln: 8.5.5 :  201 204
 in fire_ln: 8.5.5 : ncod( 200 204 ) =  3 1
 in fire_ln: 8.5.5 : ncod( 201 203 ) =  3 1
 in fire_ln: 8.5.5 : xcd( 201 204 1 ) =  -0.5000000000
 in fire_ln: 8.5.5 : xcd( 201 203 3 ) =  0.5000000000
 in fire_ln: 8.5.5 : i2-i  =  0
 in fire_ln: 8.5.5 : ycd( 201 204 1 ) =  -0.2476047873
 in fire_ln: 8.5.5 : ycd( 201 203 3 ) =  -0.4945818186
 in fire_ln: 8.5.5 : j2-j  =  -1
 in fire_ln: 8.5.5 : xcd( 201 204 3 ) =  -0.3178824186
 in fire_ln: 8.5.5 : xcd( 200 204 1 ) =  -0.3329455853E-02
 in fire_ln: 8.5.5 : i1-i  =  -1
 in fire_ln: 8.5.5 : ycd( 201 204 3 ) =  -0.5000000000
 in fire_ln: 8.5.5 : ycd( 200 204 1 ) =  0.5000000000
 in fire_ln: 8.5.5 : j1-j  =  0
 in fire_ln: 8.5.6 :  201 204
 in fire_ln: 8.6 :  201 204
 in fire_ln: 8.7 :  201 204
 in fire_ln: 8.8 :  201 204
 in fire_ln: 8.9 :  201 204
 in fire_ln: 8.10 :  201 204
 in fire_ln: 8.1 :  223 204
 in fire_ln: 8.1.1 : nh0   =  3
 in fire_ln: 8.1.2 : nct   =  3
 in fire_ln: 8.1.3 : icls  =  2
 in fire_ln: 8.1.4 : itt   =  3
 in fire_ln: 8.1.5 : i,j   =  223 204
 in fire_ln: 8.1.6 : tlx   =  1.000000000 -1.000000000
 in fire_ln: 8.1.7 : int   =  1 -1
 in fire_ln: 8.1.8 : i2,j2 = 224 203
 in fire_ln: 8.2 :  223 204
 in fire_ln: 8.3 :  223 204
 in fire_ln: 8.3.1 :  224 203
 in fire_ln: 8.3.2 :  224 204
 in fire_ln: 8.4 :  223 204
 in fire_ln: 8.5 :  223 204
 in fire_ln: 8.5.1 :  223 204
 in fire_ln: 8.5.2 :  223 204
 in fire_ln: 8.5.3 :  223 204
 in fire_ln: 8.5.4 :  223 204
 in fire_ln: 8.5.5 :  223 204
 in fire_ln: 8.5.5 : ncod( 223 203 ) =  3 1
 in fire_ln: 8.5.5 : ncod( 224 204 ) =  3 1
 in fire_ln: 8.5.5 : xcd( 223 204 1 ) =  0.3178824186
 in fire_ln: 8.5.5 : xcd( 224 204 3 ) =  0.3329455853E-02
 in fire_ln: 8.5.5 : i2-i  =  1
 in fire_ln: 8.5.5 : ycd( 223 204 1 ) =  -0.5000000000
 in fire_ln: 8.5.5 : ycd( 224 204 3 ) =  0.5000000000
 in fire_ln: 8.5.5 : j2-j  =  0
 in fire_ln: 8.5.5 : xcd( 223 204 3 ) =  0.5000000000
 in fire_ln: 8.5.5 : xcd( 223 203 1 ) =  -0.5000000000
 in fire_ln: 8.5.5 : i1-i  =  0
 in fire_ln: 8.5.5 : ycd( 223 204 3 ) =  -0.2476047873
 in fire_ln: 8.5.5 : ycd( 223 203 1 ) =  -0.4945818186
 in fire_ln: 8.5.5 : j1-j  =  -1
 in fire_ln: 8.5.6 :  223 204
 in fire_ln: 8.6 :  223 204
 in fire_ln: 8.7 :  223 204
 in fire_ln: 8.8 :  223 204
 in fire_ln: 8.9 :  223 204
 in fire_ln: 8.10 :  223 204
 in fire_ln: 8.1 :  224 204
 in fire_ln: 8.1.1 : nh0   =  3
 in fire_ln: 8.1.2 : nct   =  1
 in fire_ln: 8.1.3 : icls  =  4
 in fire_ln: 8.1.4 : itt   =  3
 in fire_ln: 8.1.5 : i,j   =  224 204
 in fire_ln: 8.1.6 : tlx   =  1.000000000 1.000000000
 in fire_ln: 8.1.7 : int   =  1 1
 in fire_ln: 8.1.8 : i2,j2 = 225 205
 in fire_ln: 8.2 :  224 204
 in fire_ln: 8.3 :  224 204
 in fire_ln: 8.3.1 :  225 205
 in fire_ln: 8.3.2 :  224 205
 in fire_ln: 8.4 :  224 204
 in fire_ln: 8.5 :  224 204
 in fire_ln: 8.5.1 :  224 204
 in fire_ln: 8.5.2 :  224 204
 in fire_ln: 8.5.3 :  224 204
 in fire_ln: 8.5.4 :  224 204
 in fire_ln: 8.5.5 :  224 204
 in fire_ln: 8.5.5 : ncod( 223 204 ) =  3 1
 in fire_ln: 8.5.5 : ncod( 224 205 ) =  3 1
 in fire_ln: 8.5.5 : xcd( 224 204 1 ) =  -0.5000000000
 in fire_ln: 8.5.5 : xcd( 224 205 3 ) =  0.5000000000
 in fire_ln: 8.5.5 : i2-i  =  0
 in fire_ln: 8.5.5 : ycd( 224 204 1 ) =  -0.2476047873
 in fire_ln: 8.5.5 : ycd( 224 205 3 ) =  0.3622482419
 in fire_ln: 8.5.5 : j2-j  =  1
 in fire_ln: 8.5.5 : xcd( 224 204 3 ) =  0.3329455853E-02
 in fire_ln: 8.5.5 : xcd( 223 204 1 ) =  0.3178824186
 in fire_ln: 8.5.5 : i1-i  =  -1
 in fire_ln: 8.5.5 : ycd( 224 204 3 ) =  0.5000000000
 in fire_ln: 8.5.5 : ycd( 223 204 1 ) =  -0.5000000000
 in fire_ln: 8.5.5 : j1-j  =  0
 in fire_ln: 8.5.6 :  224 204
 in fire_ln: 8.6 :  224 204
 in fire_ln: 8.7 :  224 204
 in fire_ln: 8.8 :  224 204
 in fire_ln: 8.9 :  224 204
 in fire_ln: 8.10 :  224 204
 in fire_ln: 8.1 :  199 205
 in fire_ln: 8.1.1 : nh0   =  3
 in fire_ln: 8.1.2 : nct   =  1
 in fire_ln: 8.1.3 : icls  =  4
 in fire_ln: 8.1.4 : itt   =  3
 in fire_ln: 8.1.5 : i,j   =  199 205
 in fire_ln: 8.1.6 : tlx   =  1.000000000 1.000000000
 in fire_ln: 8.1.7 : int   =  1 1
 in fire_ln: 8.1.8 : i2,j2 = 200 206
 in fire_ln: 8.2 :  199 205
 in fire_ln: 8.3 :  199 205
 in fire_ln: 8.3.1 :  200 206
 in fire_ln: 8.3.2 :  200 205
 in fire_ln: 8.4 :  199 205
 in fire_ln: 8.5 :  199 205
 in fire_ln: 8.5.1 :  199 205
 in fire_ln: 8.5.2 :  199 205
 in fire_ln: 8.5.3 :  199 205
 in fire_ln: 8.5.4 :  199 205
 in fire_ln: 8.5.5 :  199 205
 in fire_ln: 8.5.5 : ncod( 199 206 ) =  2 1
 in fire_ln: 8.5.5 : ncod( 200 205 ) =  3 1
 in fire_ln: 8.5.5 : xcd( 199 205 1 ) =  0.4247756600
 in fire_ln: 8.5.5 : xcd( 200 205 3 ) =  -0.3329455853E-02
 in fire_ln: 8.5.5 : i2-i  =  1
 in fire_ln: 8.5.5 : ycd( 199 205 1 ) =  0.5000000000
 in fire_ln: 8.5.5 : ycd( 200 205 3 ) =  -0.5000000000
 in fire_ln: 8.5.5 : j2-j  =  0
 in fire_ln: 8.5.5 : xcd( 199 205 3 ) =  0.5000000000
 in fire_ln: 8.5.5 : xcd( 199 206 1 ) =  -0.4271763563E-01
 in fire_ln: 8.5.5 : i1-i  =  0
 in fire_ln: 8.5.5 : ycd( 199 205 3 ) =  0.3622482419
 in fire_ln: 8.5.5 : ycd( 199 206 1 ) =  0.5000000000
 in fire_ln: 8.5.5 : j1-j  =  1
 in fire_ln: 8.5.6 :  199 205
 in fire_ln: 8.6 :  199 205
 in fire_ln: 8.7 :  199 205
 in fire_ln: 8.8 :  199 205
 in fire_ln: 8.9 :  199 205
 in fire_ln: 8.10 :  199 205
 in fire_ln: 8.1 :  200 205
 in fire_ln: 8.1.1 : nh0   =  3
 in fire_ln: 8.1.2 : nct   =  3
 in fire_ln: 8.1.3 : icls  =  2
 in fire_ln: 8.1.4 : itt   =  3
 in fire_ln: 8.1.5 : i,j   =  200 205
 in fire_ln: 8.1.6 : tlx   =  -1.000000000 -1.000000000
 in fire_ln: 8.1.7 : int   =  -1 -1
 in fire_ln: 8.1.8 : i2,j2 = 199 204
 in fire_ln: 8.2 :  200 205
 in fire_ln: 8.3 :  200 205
 in fire_ln: 8.3.1 :  199 204
 in fire_ln: 8.3.2 :  200 204
 in fire_ln: 8.4 :  200 205
 in fire_ln: 8.5 :  200 205
 in fire_ln: 8.5.1 :  200 205
 in fire_ln: 8.5.2 :  200 205
 in fire_ln: 8.5.3 :  200 205
 in fire_ln: 8.5.4 :  200 205
 in fire_ln: 8.5.5 :  200 205
 in fire_ln: 8.5.5 : ncod( 199 205 ) =  3 1
 in fire_ln: 8.5.5 : ncod( 200 204 ) =  3 1
 in fire_ln: 8.5.5 : xcd( 200 205 1 ) =  -0.5000000000
 in fire_ln: 8.5.5 : xcd( 200 204 3 ) =  0.5000000000
 in fire_ln: 8.5.5 : i2-i  =  0
 in fire_ln: 8.5.5 : ycd( 200 205 1 ) =  0.3622482419
 in fire_ln: 8.5.5 : ycd( 200 204 3 ) =  -0.2476047873
 in fire_ln: 8.5.5 : j2-j  =  -1
 in fire_ln: 8.5.5 : xcd( 200 205 3 ) =  -0.3329455853E-02
 in fire_ln: 8.5.5 : xcd( 199 205 1 ) =  0.4247756600
 in fire_ln: 8.5.5 : i1-i  =  -1
 in fire_ln: 8.5.5 : ycd( 200 205 3 ) =  -0.5000000000
 in fire_ln: 8.5.5 : ycd( 199 205 1 ) =  0.5000000000
 in fire_ln: 8.5.5 : j1-j  =  0
 in fire_ln: 8.5.6 :  200 205
 in fire_ln: 8.6 :  200 205
 in fire_ln: 8.7 :  200 205
 in fire_ln: 8.8 :  200 205
 in fire_ln: 8.9 :  200 205
 in fire_ln: 8.10 :  200 205
 in fire_ln: 8.1 :  224 205
 in fire_ln: 8.1.1 : nh0   =  3
 in fire_ln: 8.1.2 : nct   =  3
 in fire_ln: 8.1.3 : icls  =  2
 in fire_ln: 8.1.4 : itt   =  3
 in fire_ln: 8.1.5 : i,j   =  224 205
 in fire_ln: 8.1.6 : tlx   =  1.000000000 1.000000000
 in fire_ln: 8.1.7 : int   =  1 1
 in fire_ln: 8.1.8 : i2,j2 = 225 206
 in fire_ln: 8.2 :  224 205
 in fire_ln: 8.3 :  224 205
 in fire_ln: 8.3.1 :  225 206
 in fire_ln: 8.3.2 :  225 205
 in fire_ln: 8.4 :  224 205
 in fire_ln: 8.5 :  224 205
 in fire_ln: 8.5.1 :  224 205
 in fire_ln: 8.5.2 :  224 205
 in fire_ln: 8.5.3 :  224 205
 in fire_ln: 8.5.4 :  224 205
 in fire_ln: 8.5.5 :  224 205
 in fire_ln: 8.5.5 : ncod( 224 204 ) =  3 1
 in fire_ln: 8.5.5 : ncod( 225 205 ) =  3 1
 in fire_ln: 8.5.5 : xcd( 224 205 1 ) =  0.3329455853E-02
 in fire_ln: 8.5.5 : xcd( 225 205 3 ) =  -0.4247756600
 in fire_ln: 8.5.5 : i2-i  =  1
 in fire_ln: 8.5.5 : ycd( 224 205 1 ) =  -0.5000000000
 in fire_ln: 8.5.5 : ycd( 225 205 3 ) =  0.5000000000
 in fire_ln: 8.5.5 : j2-j  =  0
 in fire_ln: 8.5.5 : xcd( 224 205 3 ) =  0.5000000000
 in fire_ln: 8.5.5 : xcd( 224 204 1 ) =  -0.5000000000
 in fire_ln: 8.5.5 : i1-i  =  0
 in fire_ln: 8.5.5 : ycd( 224 205 3 ) =  0.3622482419
 in fire_ln: 8.5.5 : ycd( 224 204 1 ) =  -0.2476047873
 in fire_ln: 8.5.5 : j1-j  =  -1
 in fire_ln: 8.5.6 :  224 205
 in fire_ln: 8.6 :  224 205
 in fire_ln: 8.7 :  224 205
 in fire_ln: 8.8 :  224 205
 in fire_ln: 8.9 :  224 205
 in fire_ln: 8.10 :  224 205
 in fire_ln: 8.1 :  225 205
 in fire_ln: 8.1.1 : nh0   =  3
 in fire_ln: 8.1.2 : nct   =  1
 in fire_ln: 8.1.3 : icls  =  4
 in fire_ln: 8.1.4 : itt   =  3
 in fire_ln: 8.1.5 : i,j   =  225 205
 in fire_ln: 8.1.6 : tlx   =  -1.000000000 1.000000000
 in fire_ln: 8.1.7 : int   =  -1 1
 in fire_ln: 8.1.8 : i2,j2 = 224 206
 in fire_ln: 8.2 :  225 205
 in fire_ln: 8.3 :  225 205
 in fire_ln: 8.3.1 :  224 206
 in fire_ln: 8.3.2 :  225 206
 in fire_ln: 8.4 :  225 205
 in fire_ln: 8.5 :  225 205
 in fire_ln: 8.5.1 :  225 205
 in fire_ln: 8.5.2 :  225 205
 in fire_ln: 8.5.3 :  225 205
 in fire_ln: 8.5.4 :  225 205
 in fire_ln: 8.5.5 :  225 205
 in fire_ln: 8.5.5 : ncod( 224 205 ) =  3 1
 in fire_ln: 8.5.5 : ncod( 225 206 ) =  2 1
 in fire_ln: 8.5.5 : xcd( 225 205 1 ) =  -0.5000000000
 in fire_ln: 8.5.5 : xcd( 225 206 2 ) =  0.4271763563E-01
 in fire_ln: 8.5.5 : i2-i  =  0
 in fire_ln: 8.5.5 : ycd( 225 205 1 ) =  0.3622482419
 in fire_ln: 8.5.5 : ycd( 225 206 2 ) =  0.5000000000
 in fire_ln: 8.5.5 : j2-j  =  1
 in fire_ln: 8.5.5 : xcd( 225 205 3 ) =  -0.4247756600
 in fire_ln: 8.5.5 : xcd( 224 205 1 ) =  0.3329455853E-02
 in fire_ln: 8.5.5 : i1-i  =  -1
 in fire_ln: 8.5.5 : ycd( 225 205 3 ) =  0.5000000000
 in fire_ln: 8.5.5 : ycd( 224 205 1 ) =  -0.5000000000
 in fire_ln: 8.5.5 : j1-j  =  0
 in fire_ln: 8.5.6 :  225 205
 in fire_ln: 8.6 :  225 205
 in fire_ln: 8.7 :  225 205
 in fire_ln: 8.8 :  225 205
 in fire_ln: 8.9 :  225 205
 in fire_ln: 8.10 :  225 205
 in fire_ln: 8.1 :  199 206
 in fire_ln: 8.1.1 : nh0   =  2
 in fire_ln: 8.1.2 : nct   =  2
 in fire_ln: 8.1.3 : icls  =  2
 in fire_ln: 8.1.4 : itt   =  2
 in fire_ln: 8.1.5 : i,j   =  199 206
 in fire_ln: 8.1.6 : tlx   =  1.000000000 -1.000000000
 in fire_ln: 8.1.7 : int   =  1 -1
 in fire_ln: 8.1.8 : i2,j2 = 200 205
 in fire_ln: 8.2 :  199 206
 in fire_ln: 8.3 :  199 206
 in fire_ln: 8.3.1 :  200 205
 in fire_ln: 8.3.2 :  199 205
 in fire_ln: 8.4 :  199 206
 in fire_ln: 8.5 :  199 206
 in fire_ln: 8.5.1 :  199 206
 in fire_ln: 8.5.2 :  199 206
 in fire_ln: 8.5.3 :  199 206
 in fire_ln: 8.5.4 :  199 206
 in fire_ln: 8.5.5 :  199 206
 in fire_ln: 8.5.5 : ncod( 199 207 ) =  2 1
 in fire_ln: 8.5.5 : ncod( 199 205 ) =  3 1
 in fire_ln: 8.5.5 : xcd( 199 206 1 ) =  -0.4271763563E-01
 in fire_ln: 8.5.5 : xcd( 199 205 3 ) =  0.5000000000
 in fire_ln: 8.5.5 : i2-i  =  0
 in fire_ln: 8.5.5 : ycd( 199 206 1 ) =  0.5000000000
 in fire_ln: 8.5.5 : ycd( 199 205 3 ) =  0.3622482419
 in fire_ln: 8.5.5 : j2-j  =  -1
 in fire_ln: 8.5.5 : xcd( 199 206 2 ) =  0.4247756600
 in fire_ln: 8.5.5 : xcd( 199 207 1 ) =  -0.4217160344
 in fire_ln: 8.5.5 : i1-i  =  0
 in fire_ln: 8.5.5 : ycd( 199 206 2 ) =  -0.5000000000
 in fire_ln: 8.5.5 : ycd( 199 207 1 ) =  0.5000000000
 in fire_ln: 8.5.5 : j1-j  =  1
 in fire_ln: 8.5.6 :  199 206
 in fire_ln: 8.6 :  199 206
 in fire_ln: 8.7 :  199 206
 in fire_ln: 8.8 :  199 206
 in fire_ln: 8.9 :  199 206
 in fire_ln: 8.10 :  199 206
 in fire_ln: 8.1 :  225 206
 in fire_ln: 8.1.1 : nh0   =  2
 in fire_ln: 8.1.2 : nct   =  2
 in fire_ln: 8.1.3 : icls  =  2
 in fire_ln: 8.1.4 : itt   =  2
 in fire_ln: 8.1.5 : i,j   =  225 206
 in fire_ln: 8.1.6 : tlx   =  1.000000000 1.000000000
 in fire_ln: 8.1.7 : int   =  1 1
 in fire_ln: 8.1.8 : i2,j2 = 226 207
 in fire_ln: 8.2 :  225 206
 in fire_ln: 8.3 :  225 206
 in fire_ln: 8.3.1 :  226 207
 in fire_ln: 8.3.2 :  225 207
 in fire_ln: 8.4 :  225 206
 in fire_ln: 8.5 :  225 206
 in fire_ln: 8.5.1 :  225 206
 in fire_ln: 8.5.2 :  225 206
 in fire_ln: 8.5.3 :  225 206
 in fire_ln: 8.5.4 :  225 206
 in fire_ln: 8.5.5 :  225 206
 in fire_ln: 8.5.5 : ncod( 225 205 ) =  3 1
 in fire_ln: 8.5.5 : ncod( 225 207 ) =  2 1
 in fire_ln: 8.5.5 : xcd( 225 206 1 ) =  -0.4247756600
 in fire_ln: 8.5.5 : xcd( 225 207 2 ) =  0.4217160344
 in fire_ln: 8.5.5 : i2-i  =  0
 in fire_ln: 8.5.5 : ycd( 225 206 1 ) =  -0.5000000000
 in fire_ln: 8.5.5 : ycd( 225 207 2 ) =  0.5000000000
 in fire_ln: 8.5.5 : j2-j  =  1
 in fire_ln: 8.5.5 : xcd( 225 206 2 ) =  0.4271763563E-01
 in fire_ln: 8.5.5 : xcd( 225 205 1 ) =  -0.5000000000
 in fire_ln: 8.5.5 : i1-i  =  0
 in fire_ln: 8.5.5 : ycd( 225 206 2 ) =  0.5000000000
 in fire_ln: 8.5.5 : ycd( 225 205 1 ) =  0.3622482419
 in fire_ln: 8.5.5 : j1-j  =  -1
 in fire_ln: 8.5.6 :  225 206
 in fire_ln: 8.6 :  225 206
 in fire_ln: 8.7 :  225 206
 in fire_ln: 8.8 :  225 206
 in fire_ln: 8.9 :  225 206
 in fire_ln: 8.10 :  225 206
 in fire_ln: 8.1 :  199 207
 in fire_ln: 8.1.1 : nh0   =  2
 in fire_ln: 8.1.2 : nct   =  2
 in fire_ln: 8.1.3 : icls  =  2
 in fire_ln: 8.1.4 : itt   =  2
 in fire_ln: 8.1.5 : i,j   =  199 207
 in fire_ln: 8.1.6 : tlx   =  -1.000000000 -1.000000000
 in fire_ln: 8.1.7 : int   =  -1 -1
 in fire_ln: 8.1.8 : i2,j2 = 198 206
 in fire_ln: 8.2 :  199 207
 in fire_ln: 8.3 :  199 207
 in fire_ln: 8.3.1 :  198 206
 in fire_ln: 8.3.2 :  199 206
 in fire_ln: 8.4 :  199 207
 in fire_ln: 8.5 :  199 207
 in fire_ln: 8.5.1 :  199 207
 in fire_ln: 8.5.2 :  199 207
 in fire_ln: 8.5.3 :  199 207
 in fire_ln: 8.5.4 :  199 207
 in fire_ln: 8.5.5 :  199 207
 in fire_ln: 8.5.5 : ncod( 199 208 ) =  3 1
 in fire_ln: 8.5.5 : ncod( 199 206 ) =  2 1
 in fire_ln: 8.5.5 : xcd( 199 207 1 ) =  -0.4217160344
 in fire_ln: 8.5.5 : xcd( 199 206 2 ) =  0.4247756600
 in fire_ln: 8.5.5 : i2-i  =  0
 in fire_ln: 8.5.5 : ycd( 199 207 1 ) =  0.5000000000
 in fire_ln: 8.5.5 : ycd( 199 206 2 ) =  -0.5000000000
 in fire_ln: 8.5.5 : j2-j  =  -1
 in fire_ln: 8.5.5 : xcd( 199 207 2 ) =  -0.4271763563E-01
 in fire_ln: 8.5.5 : xcd( 199 208 1 ) =  -0.5000000000
 in fire_ln: 8.5.5 : i1-i  =  0
 in fire_ln: 8.5.5 : ycd( 199 207 2 ) =  -0.5000000000
 in fire_ln: 8.5.5 : ycd( 199 208 1 ) =  -0.2394653559
 in fire_ln: 8.5.5 : j1-j  =  1
 in fire_ln: 8.5.6 :  199 207
 in fire_ln: 8.6 :  199 207
 in fire_ln: 8.7 :  199 207
 in fire_ln: 8.8 :  199 207
 in fire_ln: 8.9 :  199 207
 in fire_ln: 8.10 :  199 207
 in fire_ln: 8.1 :  225 207
 in fire_ln: 8.1.1 : nh0   =  2
 in fire_ln: 8.1.2 : nct   =  2
 in fire_ln: 8.1.3 : icls  =  2
 in fire_ln: 8.1.4 : itt   =  2
 in fire_ln: 8.1.5 : i,j   =  225 207
 in fire_ln: 8.1.6 : tlx   =  1.000000000 1.000000000
 in fire_ln: 8.1.7 : int   =  1 1
 in fire_ln: 8.1.8 : i2,j2 = 226 208
 in fire_ln: 8.2 :  225 207
 in fire_ln: 8.3 :  225 207
 in fire_ln: 8.3.1 :  226 208
 in fire_ln: 8.3.2 :  225 208
 in fire_ln: 8.4 :  225 207
 in fire_ln: 8.5 :  225 207
 in fire_ln: 8.5.1 :  225 207
 in fire_ln: 8.5.2 :  225 207
 in fire_ln: 8.5.3 :  225 207
 in fire_ln: 8.5.4 :  225 207
 in fire_ln: 8.5.5 :  225 207
 in fire_ln: 8.5.5 : ncod( 225 206 ) =  2 1
 in fire_ln: 8.5.5 : ncod( 225 208 ) =  3 1
 in fire_ln: 8.5.5 : xcd( 225 207 1 ) =  0.4271763563E-01
 in fire_ln: 8.5.5 : xcd( 225 208 3 ) =  0.5000000000
 in fire_ln: 8.5.5 : i2-i  =  0
 in fire_ln: 8.5.5 : ycd( 225 207 1 ) =  -0.5000000000
 in fire_ln: 8.5.5 : ycd( 225 208 3 ) =  -0.2394653559
 in fire_ln: 8.5.5 : j2-j  =  1
 in fire_ln: 8.5.5 : xcd( 225 207 2 ) =  0.4217160344
 in fire_ln: 8.5.5 : xcd( 225 206 1 ) =  -0.4247756600
 in fire_ln: 8.5.5 : i1-i  =  0
 in fire_ln: 8.5.5 : ycd( 225 207 2 ) =  0.5000000000
 in fire_ln: 8.5.5 : ycd( 225 206 1 ) =  -0.5000000000
 in fire_ln: 8.5.5 : j1-j  =  -1
 in fire_ln: 8.5.6 :  225 207
 in fire_ln: 8.6 :  225 207
 in fire_ln: 8.7 :  225 207
 in fire_ln: 8.8 :  225 207
 in fire_ln: 8.9 :  225 207
 in fire_ln: 8.10 :  225 207
 in fire_ln: 8.1 :  198 208
 in fire_ln: 8.1.1 : nh0   =  3
 in fire_ln: 8.1.2 : nct   =  1
 in fire_ln: 8.1.3 : icls  =  4
 in fire_ln: 8.1.4 : itt   =  3
 in fire_ln: 8.1.5 : i,j   =  198 208
 in fire_ln: 8.1.6 : tlx   =  1.000000000 -1.000000000
 in fire_ln: 8.1.7 : int   =  1 -1
 in fire_ln: 8.1.8 : i2,j2 = 199 207
 in fire_ln: 8.2 :  198 208
 in fire_ln: 8.3 :  198 208
 in fire_ln: 8.3.1 :  199 207
 in fire_ln: 8.3.2 :  199 208
 in fire_ln: 8.4 :  198 208
 in fire_ln: 8.5 :  198 208
 in fire_ln: 8.5.1 :  198 208
 in fire_ln: 8.5.2 :  198 208
 in fire_ln: 8.5.3 :  198 208
 in fire_ln: 8.5.4 :  198 208
 in fire_ln: 8.5.5 :  198 208
 in fire_ln: 8.5.5 : ncod( 198 209 ) =  2 1
 in fire_ln: 8.5.5 : ncod( 199 208 ) =  3 1
 in fire_ln: 8.5.5 : xcd( 198 208 1 ) =  0.2835786939
 in fire_ln: 8.5.5 : xcd( 199 208 3 ) =  -0.4217160344
 in fire_ln: 8.5.5 : i2-i  =  1
 in fire_ln: 8.5.5 : ycd( 198 208 1 ) =  0.5000000000
 in fire_ln: 8.5.5 : ycd( 199 208 3 ) =  -0.5000000000
 in fire_ln: 8.5.5 : j2-j  =  0
 in fire_ln: 8.5.5 : xcd( 198 208 3 ) =  0.5000000000
 in fire_ln: 8.5.5 : xcd( 198 209 1 ) =  0.6649315357E-01
 in fire_ln: 8.5.5 : i1-i  =  0
 in fire_ln: 8.5.5 : ycd( 198 208 3 ) =  -0.2394653559
 in fire_ln: 8.5.5 : ycd( 198 209 1 ) =  0.5000000000
 in fire_ln: 8.5.5 : j1-j  =  1
 in fire_ln: 8.5.6 :  198 208
 in fire_ln: 8.6 :  198 208
 in fire_ln: 8.7 :  198 208
 in fire_ln: 8.8 :  198 208
 in fire_ln: 8.9 :  198 208
 in fire_ln: 8.10 :  198 208
 in fire_ln: 8.1 :  199 208
 in fire_ln: 8.1.1 : nh0   =  3
 in fire_ln: 8.1.2 : nct   =  3
 in fire_ln: 8.1.3 : icls  =  2
 in fire_ln: 8.1.4 : itt   =  3
 in fire_ln: 8.1.5 : i,j   =  199 208
 in fire_ln: 8.1.6 : tlx   =  -1.000000000 -1.000000000
 in fire_ln: 8.1.7 : int   =  -1 -1
 in fire_ln: 8.1.8 : i2,j2 = 198 207
 in fire_ln: 8.2 :  199 208
 in fire_ln: 8.3 :  199 208
 in fire_ln: 8.3.1 :  198 207
 in fire_ln: 8.3.2 :  199 207
 in fire_ln: 8.4 :  199 208
 in fire_ln: 8.5 :  199 208
 in fire_ln: 8.5.1 :  199 208
 in fire_ln: 8.5.2 :  199 208
 in fire_ln: 8.5.3 :  199 208
 in fire_ln: 8.5.4 :  199 208
 in fire_ln: 8.5.5 :  199 208
 in fire_ln: 8.5.5 : ncod( 198 208 ) =  3 1
 in fire_ln: 8.5.5 : ncod( 199 207 ) =  2 1
 in fire_ln: 8.5.5 : xcd( 199 208 1 ) =  -0.5000000000
 in fire_ln: 8.5.5 : xcd( 199 207 2 ) =  -0.4271763563E-01
 in fire_ln: 8.5.5 : i2-i  =  0
 in fire_ln: 8.5.5 : ycd( 199 208 1 ) =  -0.2394653559
 in fire_ln: 8.5.5 : ycd( 199 207 2 ) =  -0.5000000000
 in fire_ln: 8.5.5 : j2-j  =  -1
 in fire_ln: 8.5.5 : xcd( 199 208 3 ) =  -0.4217160344
 in fire_ln: 8.5.5 : xcd( 198 208 1 ) =  0.2835786939
 in fire_ln: 8.5.5 : i1-i  =  -1
 in fire_ln: 8.5.5 : ycd( 199 208 3 ) =  -0.5000000000
 in fire_ln: 8.5.5 : ycd( 198 208 1 ) =  0.5000000000
 in fire_ln: 8.5.5 : j1-j  =  0
 in fire_ln: 8.5.6 :  199 208
 in fire_ln: 8.6 :  199 208
 in fire_ln: 8.7 :  199 208
 in fire_ln: 8.8 :  199 208
 in fire_ln: 8.9 :  199 208
 in fire_ln: 8.10 :  199 208
 in fire_ln: 8.1 :  225 208
 in fire_ln: 8.1.1 : nh0   =  3
 in fire_ln: 8.1.2 : nct   =  3
 in fire_ln: 8.1.3 : icls  =  2
 in fire_ln: 8.1.4 : itt   =  3
 in fire_ln: 8.1.5 : i,j   =  225 208
 in fire_ln: 8.1.6 : tlx   =  1.000000000 -1.000000000
 in fire_ln: 8.1.7 : int   =  1 -1
 in fire_ln: 8.1.8 : i2,j2 = 226 207
 in fire_ln: 8.2 :  225 208
 in fire_ln: 8.3 :  225 208
 in fire_ln: 8.3.1 :  226 207
 in fire_ln: 8.3.2 :  226 208
 in fire_ln: 8.4 :  225 208
 in fire_ln: 8.5 :  225 208
 in fire_ln: 8.5.1 :  225 208
 in fire_ln: 8.5.2 :  225 208
 in fire_ln: 8.5.3 :  225 208
 in fire_ln: 8.5.4 :  225 208
 in fire_ln: 8.5.5 :  225 208
 in fire_ln: 8.5.5 : ncod( 225 207 ) =  2 1
 in fire_ln: 8.5.5 : ncod( 226 208 ) =  3 1
 in fire_ln: 8.5.5 : xcd( 225 208 1 ) =  0.4217160344
 in fire_ln: 8.5.5 : xcd( 226 208 3 ) =  -0.2835786939
 in fire_ln: 8.5.5 : i2-i  =  1
 in fire_ln: 8.5.5 : ycd( 225 208 1 ) =  -0.5000000000
 in fire_ln: 8.5.5 : ycd( 226 208 3 ) =  0.5000000000
 in fire_ln: 8.5.5 : j2-j  =  0
 in fire_ln: 8.5.5 : xcd( 225 208 3 ) =  0.5000000000
 in fire_ln: 8.5.5 : xcd( 225 207 1 ) =  0.4271763563E-01
 in fire_ln: 8.5.5 : i1-i  =  0
 in fire_ln: 8.5.5 : ycd( 225 208 3 ) =  -0.2394653559
 in fire_ln: 8.5.5 : ycd( 225 207 1 ) =  -0.5000000000
 in fire_ln: 8.5.5 : j1-j  =  -1
 in fire_ln: 8.5.6 :  225 208
 in fire_ln: 8.6 :  225 208
 in fire_ln: 8.7 :  225 208
 in fire_ln: 8.8 :  225 208
 in fire_ln: 8.9 :  225 208
 in fire_ln: 8.10 :  225 208
 in fire_ln: 8.1 :  226 208
 in fire_ln: 8.1.1 : nh0   =  3
 in fire_ln: 8.1.2 : nct   =  1
 in fire_ln: 8.1.3 : icls  =  4
 in fire_ln: 8.1.4 : itt   =  3
 in fire_ln: 8.1.5 : i,j   =  226 208
 in fire_ln: 8.1.6 : tlx   =  -1.000000000 1.000000000
 in fire_ln: 8.1.7 : int   =  -1 1
 in fire_ln: 8.1.8 : i2,j2 = 225 209
 in fire_ln: 8.2 :  226 208
 in fire_ln: 8.3 :  226 208
 in fire_ln: 8.3.1 :  225 209
 in fire_ln: 8.3.2 :  226 209
 in fire_ln: 8.4 :  226 208
 in fire_ln: 8.5 :  226 208
 in fire_ln: 8.5.1 :  226 208
 in fire_ln: 8.5.2 :  226 208
 in fire_ln: 8.5.3 :  226 208
 in fire_ln: 8.5.4 :  226 208
 in fire_ln: 8.5.5 :  226 208
 in fire_ln: 8.5.5 : ncod( 225 208 ) =  3 1
 in fire_ln: 8.5.5 : ncod( 226 209 ) =  2 1
 in fire_ln: 8.5.5 : xcd( 226 208 1 ) =  -0.5000000000
 in fire_ln: 8.5.5 : xcd( 226 209 2 ) =  -0.6649315357E-01
 in fire_ln: 8.5.5 : i2-i  =  0
 in fire_ln: 8.5.5 : ycd( 226 208 1 ) =  -0.2394653559
 in fire_ln: 8.5.5 : ycd( 226 209 2 ) =  0.5000000000
 in fire_ln: 8.5.5 : j2-j  =  1
 in fire_ln: 8.5.5 : xcd( 226 208 3 ) =  -0.2835786939
 in fire_ln: 8.5.5 : xcd( 225 208 1 ) =  0.4217160344
 in fire_ln: 8.5.5 : i1-i  =  -1
 in fire_ln: 8.5.5 : ycd( 226 208 3 ) =  0.5000000000
 in fire_ln: 8.5.5 : ycd( 225 208 1 ) =  -0.5000000000
 in fire_ln: 8.5.5 : j1-j  =  0
 in fire_ln: 8.5.6 :  226 208
 in fire_ln: 8.6 :  226 208
 in fire_ln: 8.7 :  226 208
 in fire_ln: 8.8 :  226 208
 in fire_ln: 8.9 :  226 208
 in fire_ln: 8.10 :  226 208
 in fire_ln: 8.1 :  198 209
 in fire_ln: 8.1.1 : nh0   =  2
 in fire_ln: 8.1.2 : nct   =  2
 in fire_ln: 8.1.3 : icls  =  2
 in fire_ln: 8.1.4 : itt   =  2
 in fire_ln: 8.1.5 : i,j   =  198 209
 in fire_ln: 8.1.6 : tlx   =  1.000000000 -1.000000000
 in fire_ln: 8.1.7 : int   =  1 -1
 in fire_ln: 8.1.8 : i2,j2 = 199 208
 in fire_ln: 8.2 :  198 209
 in fire_ln: 8.3 :  198 209
 in fire_ln: 8.3.1 :  199 208
 in fire_ln: 8.3.2 :  198 208
 in fire_ln: 8.4 :  198 209
 in fire_ln: 8.5 :  198 209
 in fire_ln: 8.5.1 :  198 209
 in fire_ln: 8.5.2 :  198 209
 in fire_ln: 8.5.3 :  198 209
 in fire_ln: 8.5.4 :  198 209
 in fire_ln: 8.5.5 :  198 209
 in fire_ln: 8.5.5 : ncod( 198 210 ) =  2 1
 in fire_ln: 8.5.5 : ncod( 198 208 ) =  3 1
 in fire_ln: 8.5.5 : xcd( 198 209 1 ) =  0.6649315357E-01
 in fire_ln: 8.5.5 : xcd( 198 208 3 ) =  0.5000000000
 in fire_ln: 8.5.5 : i2-i  =  0
 in fire_ln: 8.5.5 : ycd( 198 209 1 ) =  0.5000000000
 in fire_ln: 8.5.5 : ycd( 198 208 3 ) =  -0.2394653559
 in fire_ln: 8.5.5 : j2-j  =  -1
 in fire_ln: 8.5.5 : xcd( 198 209 2 ) =  0.2835786939
 in fire_ln: 8.5.5 : xcd( 198 210 1 ) =  -0.7648497820E-01
 in fire_ln: 8.5.5 : i1-i  =  0
 in fire_ln: 8.5.5 : ycd( 198 209 2 ) =  -0.5000000000
 in fire_ln: 8.5.5 : ycd( 198 210 1 ) =  0.5000000000
 in fire_ln: 8.5.5 : j1-j  =  1
 in fire_ln: 8.5.6 :  198 209
 in fire_ln: 8.6 :  198 209
 in fire_ln: 8.7 :  198 209
 in fire_ln: 8.8 :  198 209
 in fire_ln: 8.9 :  198 209
 in fire_ln: 8.10 :  198 209
 in fire_ln: 8.1 :  226 209
 in fire_ln: 8.1.1 : nh0   =  2
 in fire_ln: 8.1.2 : nct   =  2
 in fire_ln: 8.1.3 : icls  =  2
 in fire_ln: 8.1.4 : itt   =  2
 in fire_ln: 8.1.5 : i,j   =  226 209
 in fire_ln: 8.1.6 : tlx   =  -1.000000000 1.000000000
 in fire_ln: 8.1.7 : int   =  -1 1
 in fire_ln: 8.1.8 : i2,j2 = 225 210
 in fire_ln: 8.2 :  226 209
 in fire_ln: 8.3 :  226 209
 in fire_ln: 8.3.1 :  225 210
 in fire_ln: 8.3.2 :  226 210
 in fire_ln: 8.4 :  226 209
 in fire_ln: 8.5 :  226 209
 in fire_ln: 8.5.1 :  226 209
 in fire_ln: 8.5.2 :  226 209
 in fire_ln: 8.5.3 :  226 209
 in fire_ln: 8.5.4 :  226 209
 in fire_ln: 8.5.5 :  226 209
 in fire_ln: 8.5.5 : ncod( 226 208 ) =  3 1
 in fire_ln: 8.5.5 : ncod( 226 210 ) =  2 1
 in fire_ln: 8.5.5 : xcd( 226 209 1 ) =  -0.2835786939
 in fire_ln: 8.5.5 : xcd( 226 210 2 ) =  0.7648497820E-01
 in fire_ln: 8.5.5 : i2-i  =  0
 in fire_ln: 8.5.5 : ycd( 226 209 1 ) =  -0.5000000000
 in fire_ln: 8.5.5 : ycd( 226 210 2 ) =  0.5000000000
 in fire_ln: 8.5.5 : j2-j  =  1
 in fire_ln: 8.5.5 : xcd( 226 209 2 ) =  -0.6649315357E-01
 in fire_ln: 8.5.5 : xcd( 226 208 1 ) =  -0.5000000000
 in fire_ln: 8.5.5 : i1-i  =  0
 in fire_ln: 8.5.5 : ycd( 226 209 2 ) =  0.5000000000
 in fire_ln: 8.5.5 : ycd( 226 208 1 ) =  -0.2394653559
 in fire_ln: 8.5.5 : j1-j  =  -1
 in fire_ln: 8.5.6 :  226 209
 in fire_ln: 8.6 :  226 209
 in fire_ln: 8.7 :  226 209
 in fire_ln: 8.8 :  226 209
 in fire_ln: 8.9 :  226 209
 in fire_ln: 8.10 :  226 209
 in fire_ln: 8.1 :  198 210
 in fire_ln: 8.1.1 : nh0   =  2
 in fire_ln: 8.1.2 : nct   =  2
 in fire_ln: 8.1.3 : icls  =  2
 in fire_ln: 8.1.4 : itt   =  2
 in fire_ln: 8.1.5 : i,j   =  198 210
 in fire_ln: 8.1.6 : tlx   =  1.000000000 -1.000000000
 in fire_ln: 8.1.7 : int   =  1 -1
 in fire_ln: 8.1.8 : i2,j2 = 199 209
 in fire_ln: 8.2 :  198 210
 in fire_ln: 8.3 :  198 210
 in fire_ln: 8.3.1 :  199 209
 in fire_ln: 8.3.2 :  198 209
 in fire_ln: 8.4 :  198 210
 in fire_ln: 8.5 :  198 210
 in fire_ln: 8.5.1 :  198 210
 in fire_ln: 8.5.2 :  198 210
 in fire_ln: 8.5.3 :  198 210
 in fire_ln: 8.5.4 :  198 210
 in fire_ln: 8.5.5 :  198 210
 in fire_ln: 8.5.5 : ncod( 198 211 ) =  2 1
 in fire_ln: 8.5.5 : ncod( 198 209 ) =  2 1
 in fire_ln: 8.5.5 : xcd( 198 210 1 ) =  -0.7648497820E-01
 in fire_ln: 8.5.5 : xcd( 198 209 2 ) =  0.2835786939
 in fire_ln: 8.5.5 : i2-i  =  0
 in fire_ln: 8.5.5 : ycd( 198 210 1 ) =  0.5000000000
 in fire_ln: 8.5.5 : ycd( 198 209 2 ) =  -0.5000000000
 in fire_ln: 8.5.5 : j2-j  =  -1
 in fire_ln: 8.5.5 : xcd( 198 210 2 ) =  0.6649315357E-01
 in fire_ln: 8.5.5 : xcd( 198 211 1 ) =  -0.1474347115
 in fire_ln: 8.5.5 : i1-i  =  0
 in fire_ln: 8.5.5 : ycd( 198 210 2 ) =  -0.5000000000
 in fire_ln: 8.5.5 : ycd( 198 211 1 ) =  0.5000000000
 in fire_ln: 8.5.5 : j1-j  =  1
 in fire_ln: 8.5.6 :  198 210
 in fire_ln: 8.6 :  198 210
 in fire_ln: 8.7 :  198 210
 in fire_ln: 8.8 :  198 210
 in fire_ln: 8.9 :  198 210
 in fire_ln: 8.10 :  198 210
 in fire_ln: 8.1 :  226 210
 in fire_ln: 8.1.1 : nh0   =  2
 in fire_ln: 8.1.2 : nct   =  2
 in fire_ln: 8.1.3 : icls  =  2
 in fire_ln: 8.1.4 : itt   =  2
 in fire_ln: 8.1.5 : i,j   =  226 210
 in fire_ln: 8.1.6 : tlx   =  1.000000000 1.000000000
 in fire_ln: 8.1.7 : int   =  1 1
 in fire_ln: 8.1.8 : i2,j2 = 227 211
 in fire_ln: 8.2 :  226 210
 in fire_ln: 8.3 :  226 210
 in fire_ln: 8.3.1 :  227 211
 in fire_ln: 8.3.2 :  226 211
 in fire_ln: 8.4 :  226 210
 in fire_ln: 8.5 :  226 210
 in fire_ln: 8.5.1 :  226 210
 in fire_ln: 8.5.2 :  226 210
 in fire_ln: 8.5.3 :  226 210
 in fire_ln: 8.5.4 :  226 210
 in fire_ln: 8.5.5 :  226 210
 in fire_ln: 8.5.5 : ncod( 226 209 ) =  2 1
 in fire_ln: 8.5.5 : ncod( 226 211 ) =  2 1
 in fire_ln: 8.5.5 : xcd( 226 210 1 ) =  -0.6649315357E-01
 in fire_ln: 8.5.5 : xcd( 226 211 2 ) =  0.1474347115
 in fire_ln: 8.5.5 : i2-i  =  0
 in fire_ln: 8.5.5 : ycd( 226 210 1 ) =  -0.5000000000
 in fire_ln: 8.5.5 : ycd( 226 211 2 ) =  0.5000000000
 in fire_ln: 8.5.5 : j2-j  =  1
 in fire_ln: 8.5.5 : xcd( 226 210 2 ) =  0.7648497820E-01
 in fire_ln: 8.5.5 : xcd( 226 209 1 ) =  -0.2835786939
 in fire_ln: 8.5.5 : i1-i  =  0
 in fire_ln: 8.5.5 : ycd( 226 210 2 ) =  0.5000000000
 in fire_ln: 8.5.5 : ycd( 226 209 1 ) =  -0.5000000000
 in fire_ln: 8.5.5 : j1-j  =  -1
 in fire_ln: 8.5.6 :  226 210
 in fire_ln: 8.6 :  226 210
 in fire_ln: 8.7 :  226 210
[...]
 in fire_ln: 8.1.8 : i2,j2 = 208 198
 in fire_ln: 8.2 :  207 199
 in fire_ln: 8.3 :  207 199
 in fire_ln: 8.3.1 :  208 198
 in fire_ln: 8.3.2 :  208 199
 in fire_ln: 8.4 :  207 199
 in fire_ln: 8.5 :  207 199
 in fire_ln: 8.5.1 :  207 199
 in fire_ln: 8.5.2 :  207 199
 in fire_ln: 8.5.3 :  207 199
 in fire_ln: 8.5.4 :  207 199
 in fire_ln: 8.5.5 :  207 199
 in fire_ln: 8.5.5 : ncod( 206 199 ) =  2 1
 in fire_ln: 8.5.5 : ncod( 208 199 ) =  3 1
 in fire_ln: 8.5.5 : xcd( 207 199 1 ) =  -0.5000000000
 in fire_ln: 8.5.5 : xcd( 208 199 3 ) =  -0.3332975805
 in fire_ln: 8.5.5 : i2-i  =  1
 in fire_ln: 8.5.5 : ycd( 207 199 1 ) =  -0.7236547023E-01
 in fire_ln: 8.5.5 : ycd( 208 199 3 ) =  -0.5000000000
 in fire_ln: 8.5.5 : j2-j  =  0
 in fire_ln: 8.5.5 : xcd( 207 199 2 ) =  0.5000000000
 in fire_ln: 8.5.5 : xcd( 206 199 1 ) =  -0.5000000000
 in fire_ln: 8.5.5 : i1-i  =  -1
 in fire_ln: 8.5.5 : ycd( 207 199 2 ) =  -0.4508602619
 in fire_ln: 8.5.5 : ycd( 206 199 1 ) =  0.3946980536
 in fire_ln: 8.5.5 : j1-j  =  0
 in fire_ln: 8.5.6 :  207 199
 in fire_ln: 8.6 :  207 199
 in fire_ln: 8.7 :  207 199
 in fire_ln: 8.8 :  207 199
 in fire_ln: 8.9 :  207 199
 in fire_ln: 8.10 :  207 199
 in fire_ln: 8.1 :  208 199
 in fire_ln: 8.1.1 : nh0   =  3
 in fire_ln: 8.1.2 : nct   =  3
 in fire_ln: 8.1.3 : icls  =  2
 in fire_ln: 8.1.4 : itt   =  3
 in fire_ln: 8.1.5 : i,j   =  208 199
 in fire_ln: 8.1.6 : tlx   =  -1.000000000 -1.000000000
 in fire_ln: 8.1.7 : int   =  -1 -1
 in fire_ln: 8.1.8 : i2,j2 = 207 198
 in fire_ln: 8.2 :  208 199
 in fire_ln: 8.3 :  208 199
 in fire_ln: 8.3.1 :  207 198
 in fire_ln: 8.3.2 :  208 198
 in fire_ln: 8.4 :  208 199
 in fire_ln: 8.5 :  208 199
 in fire_ln: 8.5.1 :  208 199
 in fire_ln: 8.5.2 :  208 199
 in fire_ln: 8.5.3 :  208 199
 in fire_ln: 8.5.4 :  208 199
 in fire_ln: 8.5.5 :  208 199
 in fire_ln: 8.5.5 : ncod( 207 199 ) =  2 1
 in fire_ln: 8.5.5 : ncod( 208 198 ) =  3 1
 in fire_ln: 8.5.5 : xcd( 208 199 1 ) =  -0.5000000000
 in fire_ln: 8.5.5 : xcd( 208 198 3 ) =  0.5000000000
 in fire_ln: 8.5.5 : i2-i  =  0
 in fire_ln: 8.5.5 : ycd( 208 199 1 ) =  -0.4508602619
 in fire_ln: 8.5.5 : ycd( 208 198 3 ) =  0.2556599379
 in fire_ln: 8.5.5 : j2-j  =  -1
 in fire_ln: 8.5.5 : xcd( 208 199 3 ) =  -0.3332975805
 in fire_ln: 8.5.5 : xcd( 207 199 1 ) =  -0.5000000000
 in fire_ln: 8.5.5 : i1-i  =  -1
 in fire_ln: 8.5.5 : ycd( 208 199 3 ) =  -0.5000000000
 in fire_ln: 8.5.5 : ycd( 207 199 1 ) =  -0.7236547023E-01
 in fire_ln: 8.5.5 : j1-j  =  0
 in fire_ln: 8.5.6 :  208 199
 in fire_ln: 8.6 :  208 199
 in fire_ln: 8.7 :  208 199
 in fire_ln: 8.8 :  208 199
 in fire_ln: 8.9 :  208 199
 in fire_ln: 8.10 :  208 199
 in fire_ln: 8.1 :  216 199
 in fire_ln: 8.1.1 : nh0   =  2
 in fire_ln: 8.1.2 : nct   =  3
 in fire_ln: 8.1.3 : icls  =  1
 in fire_ln: 8.1.4 : itt   =  2
 in fire_ln: 8.1.5 : i,j   =  216 199
 in fire_ln: 8.1.6 : tlx   =  1.000000000 -1.000000000
 in fire_ln: 8.1.7 : int   =  1 -1
 in fire_ln: 8.1.8 : i2,j2 = 217 198
 in fire_ln: 8.2 :  216 199
 in fire_ln: 8.2.1 :  216 199
 in fire_ln: 8.3 :  216 199
 in fire_ln: 8.3.1 :  217 198
 in fire_ln: 8.3.2 :  217 199
 in fire_ln: 8.4 :  216 199
 in fire_ln: 8.4.1 :  216 199
 in fire_ln: 8.5 :  216 199
 in fire_ln: 8.5.1 :  216 199
 in fire_ln: 8.5.2 :  216 199
 in fire_ln: 8.5.3 :  216 199
 in fire_ln: 8.5.4 :  216 199
 in fire_ln: 8.5.5 :  216 199
 in fire_ln: 8.5.5 : ncod( 216 198 ) =  3 1
 in fire_ln: 8.5.5 : ncod( 217 199 ) =  2 1
 in fire_ln: 8.5.5 : xcd( 216 199 1 ) =  0.4885706902
 in fire_ln: 8.5.5 : xcd( 217 199 2 ) =  0.5000000000
 in fire_ln: 8.5.5 : i2-i  =  1
 in fire_ln: 8.5.5 : ycd( 216 199 1 ) =  -0.5000000000
 in fire_ln: 8.5.5 : ycd( 217 199 2 ) =  -0.1483957171
 in fire_ln: 8.5.5 : j2-j  =  0
 in fire_ln: 8.5.5 : xcd( 216 199 2 ) =  0.5000000000
 in fire_ln: 8.5.5 : xcd( 216 198 1 ) =  -0.5000000000
 in fire_ln: 8.5.5 : i1-i  =  0
 in fire_ln: 8.5.5 : ycd( 216 199 2 ) =  -0.4976701140
 in fire_ln: 8.5.5 : ycd( 216 198 1 ) =  0.2157337070
 in fire_ln: 8.5.5 : j1-j  =  -1
 in fire_ln: 8.5.6 :  216 199
 in fire_ln: 8.6 :  216 199
 in fire_ln: 8.7 :  216 199
 in fire_ln: 8.8 :  216 199
 in fire_ln: 8.9 :  216 199
 in fire_ln: 8.10 :  216 199
 in fire_ln: 8.1 :  217 199
 in fire_ln: 8.1.1 : nh0   =  2
 in fire_ln: 8.1.2 : nct   =  2
 in fire_ln: 8.1.3 : icls  =  2
 in fire_ln: 8.1.4 : itt   =  2
 in fire_ln: 8.1.5 : i,j   =  217 199
 in fire_ln: 8.1.6 : tlx   =  1.000000000 -1.000000000
 in fire_ln: 8.1.7 : int   =  1 -1
 in fire_ln: 8.1.8 : i2,j2 = 218 198
 in fire_ln: 8.2 :  217 199
 in fire_ln: 8.3 :  217 199
 in fire_ln: 8.3.1 :  218 198
 in fire_ln: 8.3.2 :  218 199
 in fire_ln: 8.4 :  217 199
 in fire_ln: 8.5 :  217 199
 in fire_ln: 8.5.1 :  217 199
 in fire_ln: 8.5.2 :  217 199
 in fire_ln: 8.5.3 :  217 199
 in fire_ln: 8.5.4 :  217 199
 in fire_ln: 8.5.5 :  217 199
 in fire_ln: 8.5.5 : ncod( 216 199 ) =  2 1
 in fire_ln: 8.5.5 : ncod( 218 199 ) =  2 1
 in fire_ln: 8.5.5 : xcd( 217 199 1 ) =  -0.5000000000
 in fire_ln: 8.5.5 : xcd( 218 199 2 ) =  0.5000000000
 in fire_ln: 8.5.5 : i2-i  =  1
 in fire_ln: 8.5.5 : ycd( 217 199 1 ) =  -0.4976701140
 in fire_ln: 8.5.5 : ycd( 218 199 2 ) =  0.3195918798
 in fire_ln: 8.5.5 : j2-j  =  0
 in fire_ln: 8.5.5 : xcd( 217 199 2 ) =  0.5000000000
 in fire_ln: 8.5.5 : xcd( 216 199 1 ) =  0.4885706902
 in fire_ln: 8.5.5 : i1-i  =  -1
 in fire_ln: 8.5.5 : ycd( 217 199 2 ) =  -0.1483957171
 in fire_ln: 8.5.5 : ycd( 216 199 1 ) =  -0.5000000000
 in fire_ln: 8.5.5 : j1-j  =  0
 in fire_ln: 8.5.6 :  217 199
 in fire_ln: 8.6 :  217 199
 in fire_ln: 8.7 :  217 199
 in fire_ln: 8.8 :  217 199
 in fire_ln: 8.9 :  217 199
 in fire_ln: 8.10 :  217 199
 in fire_ln: 8.1 :  218 199
 in fire_ln: 8.1.1 : nh0   =  2
 in fire_ln: 8.1.2 : nct   =  2
 in fire_ln: 8.1.3 : icls  =  2
 in fire_ln: 8.1.4 : itt   =  2
 in fire_ln: 8.1.5 : i,j   =  218 199
 in fire_ln: 8.1.6 : tlx   =  1.000000000 1.000000000
 in fire_ln: 8.1.7 : int   =  1 1
 in fire_ln: 8.1.8 : i2,j2 = 219 200
 in fire_ln: 8.2 :  218 199
 in fire_ln: 8.3 :  218 199
 in fire_ln: 8.3.1 :  219 200
 in fire_ln: 8.3.2 :  219 199
 in fire_ln: 8.4 :  218 199
 in fire_ln: 8.5 :  218 199
 in fire_ln: 8.5.1 :  218 199
 in fire_ln: 8.5.2 :  218 199
 in fire_ln: 8.5.3 :  218 199
 in fire_ln: 8.5.4 :  218 199
 in fire_ln: 8.5.5 :  218 199
 in fire_ln: 8.5.5 : ncod( 217 199 ) =  2 1
 in fire_ln: 8.5.5 : ncod( 219 199 ) =  3 1
 in fire_ln: 8.5.5 : xcd( 218 199 1 ) =  -0.5000000000
 in fire_ln: 8.5.5 : xcd( 219 199 3 ) =  -0.1368557066
 in fire_ln: 8.5.5 : i2-i  =  1
 in fire_ln: 8.5.5 : ycd( 218 199 1 ) =  -0.1483957171
 in fire_ln: 8.5.5 : ycd( 219 199 3 ) =  0.5000000000
 in fire_ln: 8.5.5 : j2-j  =  0
 in fire_ln: 8.5.5 : xcd( 218 199 2 ) =  0.5000000000
 in fire_ln: 8.5.5 : xcd( 217 199 1 ) =  -0.5000000000
 in fire_ln: 8.5.5 : i1-i  =  -1
 in fire_ln: 8.5.5 : ycd( 218 199 2 ) =  0.3195918798
 in fire_ln: 8.5.5 : ycd( 217 199 1 ) =  -0.4976701140
 in fire_ln: 8.5.5 : j1-j  =  0
 in fire_ln: 8.5.6 :  218 199
 in fire_ln: 8.6 :  218 199
 in fire_ln: 8.7 :  218 199
 in fire_ln: 8.8 :  218 199
 in fire_ln: 8.9 :  218 199
 in fire_ln: 8.10 :  218 199
 in fire_ln: 8.1 :  219 199
 in fire_ln: 8.1.1 : nh0   =  3
 in fire_ln: 8.1.2 : nct   =  1
 in fire_ln: 8.1.3 : icls  =  4
 in fire_ln: 8.1.4 : itt   =  3
 in fire_ln: 8.1.5 : i,j   =  219 199
 in fire_ln: 8.1.6 : tlx   =  -1.000000000 1.000000000
 in fire_ln: 8.1.7 : int   =  -1 1
 in fire_ln: 8.1.8 : i2,j2 = 218 200
 in fire_ln: 8.2 :  219 199
 in fire_ln: 8.3 :  219 199
 in fire_ln: 8.3.1 :  218 200
 in fire_ln: 8.3.2 :  219 200
 in fire_ln: 8.4 :  219 199
 in fire_ln: 8.5 :  219 199
 in fire_ln: 8.5.1 :  219 199
 in fire_ln: 8.5.2 :  219 199
 in fire_ln: 8.5.3 :  219 199
 in fire_ln: 8.5.4 :  219 199
 in fire_ln: 8.5.5 :  219 199
 in fire_ln: 8.5.5 : ncod( 218 199 ) =  2 1
 in fire_ln: 8.5.5 : ncod( 219 200 ) =  3 1
 in fire_ln: 8.5.5 : xcd( 219 199 1 ) =  -0.5000000000
 in fire_ln: 8.5.5 : xcd( 219 200 3 ) =  0.5000000000
 in fire_ln: 8.5.5 : i2-i  =  0
 in fire_ln: 8.5.5 : ycd( 219 199 1 ) =  0.3195918798
 in fire_ln: 8.5.5 : ycd( 219 200 3 ) =  -0.1324744970
 in fire_ln: 8.5.5 : j2-j  =  1
 in fire_ln: 8.5.5 : xcd( 219 199 3 ) =  -0.1368557066
 in fire_ln: 8.5.5 : xcd( 218 199 1 ) =  -0.5000000000
 in fire_ln: 8.5.5 : i1-i  =  -1
 in fire_ln: 8.5.5 : ycd( 219 199 3 ) =  0.5000000000
 in fire_ln: 8.5.5 : ycd( 218 199 1 ) =  -0.1483957171
 in fire_ln: 8.5.5 : j1-j  =  0
 in fire_ln: 8.5.6 :  219 199
 in fire_ln: 8.6 :  219 199
 in fire_ln: 8.7 :  219 199
 in fire_ln: 8.8 :  219 199
 in fire_ln: 8.9 :  219 199
 in fire_ln: 8.10 :  219 199
 in fire_ln: 8.1 :  204 200
 in fire_ln: 8.1.1 : nh0   =  3
 in fire_ln: 8.1.2 : nct   =  1
 in fire_ln: 8.1.3 : icls  =  4
 in fire_ln: 8.1.4 : itt   =  3
 in fire_ln: 8.1.5 : i,j   =  204 200
 in fire_ln: 8.1.6 : tlx   =  1.000000000 -1.000000000
 in fire_ln: 8.1.7 : int   =  1 -1
 in fire_ln: 8.1.8 : i2,j2 = 205 199
 in fire_ln: 8.2 :  204 200
 in fire_ln: 8.3 :  204 200
 in fire_ln: 8.3.1 :  205 199
 in fire_ln: 8.3.2 :  205 200
 in fire_ln: 8.4 :  204 200
 in fire_ln: 8.5 :  204 200
 in fire_ln: 8.5.1 :  204 200
 in fire_ln: 8.5.2 :  204 200
 in fire_ln: 8.5.3 :  204 200
 in fire_ln: 8.5.4 :  204 200
 in fire_ln: 8.5.5 :  204 200
 in fire_ln: 8.5.5 : ncod( 204 201 ) =  3 1
 in fire_ln: 8.5.5 : ncod( 205 200 ) =  3 1
 in fire_ln: 8.5.5 : xcd( 204 200 1 ) =  -0.2882603705
 in fire_ln: 8.5.5 : xcd( 205 200 3 ) =  0.3137702048
 in fire_ln: 8.5.5 : i2-i  =  1
 in fire_ln: 8.5.5 : ycd( 204 200 1 ) =  0.5000000000
 in fire_ln: 8.5.5 : ycd( 205 200 3 ) =  -0.5000000000
 in fire_ln: 8.5.5 : j2-j  =  0
 in fire_ln: 8.5.5 : xcd( 204 200 3 ) =  0.5000000000
 in fire_ln: 8.5.5 : xcd( 204 201 1 ) =  -0.5000000000
 in fire_ln: 8.5.5 : i1-i  =  0
 in fire_ln: 8.5.5 : ycd( 204 200 3 ) =  -0.3482201323E-01
 in fire_ln: 8.5.5 : ycd( 204 201 1 ) =  -0.3529797792
 in fire_ln: 8.5.5 : j1-j  =  1
 in fire_ln: 8.5.6 :  204 200
 in fire_ln: 8.6 :  204 200
 in fire_ln: 8.7 :  204 200
 in fire_ln: 8.8 :  204 200
 in fire_ln: 8.9 :  204 200
 in fire_ln: 8.10 :  204 200
 in fire_ln: 8.1 :  205 200
 in fire_ln: 8.1.1 : nh0   =  3
 in fire_ln: 8.1.2 : nct   =  3
 in fire_ln: 8.1.3 : icls  =  2
 in fire_ln: 8.1.4 : itt   =  3
 in fire_ln: 8.1.5 : i,j   =  205 200
 in fire_ln: 8.1.6 : tlx   =  1.000000000 -1.000000000
 in fire_ln: 8.1.7 : int   =  1 -1
 in fire_ln: 8.1.8 : i2,j2 = 206 199
 in fire_ln: 8.2 :  205 200
 in fire_ln: 8.3 :  205 200
 in fire_ln: 8.3.1 :  206 199
 in fire_ln: 8.3.2 :  205 199
 in fire_ln: 8.4 :  205 200
 in fire_ln: 8.5 :  205 200
 in fire_ln: 8.5.1 :  205 200
 in fire_ln: 8.5.2 :  205 200
 in fire_ln: 8.5.3 :  205 200
 in fire_ln: 8.5.4 :  205 200
 in fire_ln: 8.5.5 :  205 200
 in fire_ln: 8.5.5 : ncod( 204 200 ) =  3 1
 in fire_ln: 8.5.5 : ncod( 205 199 ) =  3 1
 in fire_ln: 8.5.5 : xcd( 205 200 1 ) =  -0.5000000000
 in fire_ln: 8.5.5 : xcd( 205 199 3 ) =  0.5000000000
 in fire_ln: 8.5.5 : i2-i  =  0
 in fire_ln: 8.5.5 : ycd( 205 200 1 ) =  -0.3482201323E-01
 in fire_ln: 8.5.5 : ycd( 205 199 3 ) =  0.3946980536
 in fire_ln: 8.5.5 : j2-j  =  -1
 in fire_ln: 8.5.5 : xcd( 205 200 3 ) =  0.3137702048
 in fire_ln: 8.5.5 : xcd( 204 200 1 ) =  -0.2882603705
 in fire_ln: 8.5.5 : i1-i  =  -1
 in fire_ln: 8.5.5 : ycd( 205 200 3 ) =  -0.5000000000
 in fire_ln: 8.5.5 : ycd( 204 200 1 ) =  0.5000000000
 in fire_ln: 8.5.5 : j1-j  =  0
 in fire_ln: 8.5.6 :  205 200
 in fire_ln: 8.6 :  205 200
 in fire_ln: 8.7 :  205 200
 in fire_ln: 8.8 :  205 200
 in fire_ln: 8.9 :  205 200
 in fire_ln: 8.10 :  205 200
 in fire_ln: 8.1 :  219 200
 in fire_ln: 8.1.1 : nh0   =  3
 in fire_ln: 8.1.2 : nct   =  3
 in fire_ln: 8.1.3 : icls  =  2
 in fire_ln: 8.1.4 : itt   =  3
 in fire_ln: 8.1.5 : i,j   =  219 200
 in fire_ln: 8.1.6 : tlx   =  1.000000000 -1.000000000
 in fire_ln: 8.1.7 : int   =  1 -1
 in fire_ln: 8.1.8 : i2,j2 = 220 199
 in fire_ln: 8.2 :  219 200
 in fire_ln: 8.3 :  219 200
 in fire_ln: 8.3.1 :  220 199
 in fire_ln: 8.3.2 :  220 200
 in fire_ln: 8.4 :  219 200
 in fire_ln: 8.5 :  219 200
 in fire_ln: 8.5.1 :  219 200
 in fire_ln: 8.5.2 :  219 200
 in fire_ln: 8.5.3 :  219 200
 in fire_ln: 8.5.4 :  219 200
 in fire_ln: 8.5.5 :  219 200
 in fire_ln: 8.5.5 : ncod( 219 199 ) =  3 1
 in fire_ln: 8.5.5 : ncod( 220 200 ) =  2 1
 in fire_ln: 8.5.5 : xcd( 219 200 1 ) =  -0.1368557066
 in fire_ln: 8.5.5 : xcd( 220 200 2 ) =  0.5000000000
 in fire_ln: 8.5.5 : i2-i  =  1
 in fire_ln: 8.5.5 : ycd( 219 200 1 ) =  -0.5000000000
 in fire_ln: 8.5.5 : ycd( 220 200 2 ) =  0.4976496100
 in fire_ln: 8.5.5 : j2-j  =  0
 in fire_ln: 8.5.5 : xcd( 219 200 3 ) =  0.5000000000
 in fire_ln: 8.5.5 : xcd( 219 199 1 ) =  -0.5000000000
 in fire_ln: 8.5.5 : i1-i  =  0
 in fire_ln: 8.5.5 : ycd( 219 200 3 ) =  -0.1324744970
 in fire_ln: 8.5.5 : ycd( 219 199 1 ) =  0.3195918798
 in fire_ln: 8.5.5 : j1-j  =  -1
 in fire_ln: 8.5.6 :  219 200
 in fire_ln: 8.6 :  219 200
 in fire_ln: 8.7 :  219 200
 in fire_ln: 8.8 :  219 200
 in fire_ln: 8.9 :  219 200
 in fire_ln: 8.10 :  219 200
 in fire_ln: 8.1 :  220 200
 in fire_ln: 8.1.1 : nh0   =  2
 in fire_ln: 8.1.2 : nct   =  2
 in fire_ln: 8.1.3 : icls  =  2
 in fire_ln: 8.1.4 : itt   =  2
 in fire_ln: 8.1.5 : i,j   =  220 200
 in fire_ln: 8.1.6 : tlx   =  1.000000000 1.000000000
 in fire_ln: 8.1.7 : int   =  1 1
 in fire_ln: 8.1.8 : i2,j2 = 221 201
 in fire_ln: 8.2 :  220 200
 in fire_ln: 8.3 :  220 200
 in fire_ln: 8.3.1 :  221 201
 in fire_ln: 8.3.2 :  221 200
 in fire_ln: 8.4 :  220 200
 in fire_ln: 8.5 :  220 200
 in fire_ln: 8.5.1 :  220 200
 in fire_ln: 8.5.2 :  220 200
 in fire_ln: 8.5.3 :  220 200
 in fire_ln: 8.5.4 :  220 200
 in fire_ln: 8.5.5 :  220 200
 in fire_ln: 8.5.5 : ncod( 219 200 ) =  3 1
 in fire_ln: 8.5.5 : ncod( 221 200 ) =  3 1
 in fire_ln: 8.5.5 : xcd( 220 200 1 ) =  -0.5000000000
 in fire_ln: 8.5.5 : xcd( 221 200 3 ) =  1.503286362
 in fire_ln: 8.5.5 : i2-i  =  1
 in fire_ln: 8.5.5 : ycd( 220 200 1 ) =  -0.1324744970
 in fire_ln: 8.5.5 : ycd( 221 200 3 ) =  0.5000000000
 in fire_ln: 8.5.5 : j2-j  =  0
 in fire_ln: 8.5.5 : xcd( 220 200 2 ) =  0.5000000000
 in fire_ln: 8.5.5 : xcd( 219 200 1 ) =  -0.1368557066
 in fire_ln: 8.5.5 : i1-i  =  -1
 in fire_ln: 8.5.5 : ycd( 220 200 2 ) =  0.4976496100
 in fire_ln: 8.5.5 : ycd( 219 200 1 ) =  -0.5000000000
 in fire_ln: 8.5.5 : j1-j  =  0
 in fire_ln: 8.5.6 :  220 200
 in fire_ln: 8.6 :  220 200
 in fire_ln: 8.7 :  220 200
 in fire_ln: 8.8 :  220 200
 in fire_ln: 8.9 :  220 200
 in fire_ln: 8.10 :  220 200
 in fire_ln: 8.1 :  221 200
 in fire_ln: 8.1.1 : nh0   =  3
 in fire_ln: 8.1.2 : nct   =  1
 in fire_ln: 8.1.3 : icls  =  4
 in fire_ln: 8.1.4 : itt   =  3
 in fire_ln: 8.1.5 : i,j   =  221 200
 in fire_ln: 8.1.6 : tlx   =  1.000000000 1.000000000
 in fire_ln: 8.1.7 : int   =  1 1
 in fire_ln: 8.1.8 : i2,j2 = 222 201
 in fire_ln: 8.2 :  221 200
 in fire_ln: 8.3 :  221 200
 in fire_ln: 8.3.1 :  222 201
 in fire_ln: 8.3.2 :  221 201
 in fire_ln: 8.4 :  221 200
 in fire_ln: 8.5 :  221 200
 in fire_ln: 8.5.1 :  221 200
 in fire_ln: 8.5.2 :  221 200
 in fire_ln: 8.5.3 :  221 200
 in fire_ln: 8.5.4 :  221 200
 in fire_ln: 8.5.5 :  221 200
 in fire_ln: 8.5.5 : ncod( 220 200 ) =  2 1
 in fire_ln: 8.5.5 : ncod( 221 201 ) =  2 1
 in fire_ln: 8.5.5 : xcd( 221 200 1 ) =  -0.5000000000
 in fire_ln: 8.5.5 : xcd( 221 201 2 ) =  0.5000000000
 in fire_ln: 8.5.5 : i2-i  =  0
 in fire_ln: 8.5.5 : ycd( 221 200 1 ) =  0.4976496100
 in fire_ln: 8.5.5 : ycd( 221 201 2 ) =  0.2978127897
 in fire_ln: 8.5.5 : j2-j  =  1
 in fire_ln: 8.5.5 : xcd( 221 200 3 ) =  1.503286362
 in fire_ln: 8.5.5 : xcd( 220 200 1 ) =  -0.5000000000
 in fire_ln: 8.5.5 : i1-i  =  -1
 in fire_ln: 8.5.5 : ycd( 221 200 3 ) =  0.5000000000
 in fire_ln: 8.5.5 : ycd( 220 200 1 ) =  -0.1324744970
 in fire_ln: 8.5.5 : j1-j  =  0
 in fire_ln: 8.5.6 :  221 200
 in fire_ln: 8.6 :  221 200
 in fire_ln: 8.7 :  221 200
 in fire_ln: 8.8 :  221 200
 in fire_ln: 8.9 :  221 200
 ERROR DEBUG AT TIME=   10.000 I J= 221 200 IFLT=  82
 I J NCOD= 221 200   3
    IN1= 220 200
    IN2= 221 201
 TIME-TIGN_G=        8.0000        8.0000        8.0000
 TIME-TIGN_G=        8.0000        1.0000      110.0000
 TIME-TIGN_G=      110.0000      110.0000      110.0000
   NFL      =         0         1         1
   NFL      =         1         1         0
   NFL      =         0         0         0
   NC       =         4         3         1
   NC       =         2         1         0
   NC       =         0         0         0
   ICLS     =         0         1         4
   ICLS     =         2         4         8
   ICLS     =         8         8         8
 XCD(I  J =-0.5000000 0.5016432 1.5032864 0.0000000
 YCD(I  J = 0.4976496 0.4988248 0.5000000 0.0000000
 XCD(IP J = 0.0000000 0.0000000 0.0000000 0.0000000
 YCD(IP J = 0.0000000 0.0000000 0.0000000 0.0000000
 XCD(IM J =-0.5000000 0.5000000 0.0000000 0.0000000
 YCD(IM J =-0.1324745 0.4976496 0.0000000 0.0000000
 XCD(I  JP= 1.5032864 0.5000000 0.0000000 0.0000000
 YCD(I  JP=-0.5000000 0.2978128 0.0000000 0.0000000
 XCD(I  JM= 0.0000000 0.0000000 0.0000000 0.0000000
 YCD(I  JM= 0.0000000 0.0000000 0.0000000 0.0000000
 XCD(IP JP=-0.5000000-0.3879318-0.2758637 0.0000000
 YCD(IP JP= 0.2978128 0.3989064 0.5000000 0.0000000
 XCD(IM JM= 0.0000000 0.0000000 0.0000000 0.0000000
 YCD(IM JM= 0.0000000 0.0000000 0.0000000 0.0000000
 XCD(IP JM= 0.0000000 0.0000000 0.0000000 0.0000000
 YCD(IP JM= 0.0000000 0.0000000 0.0000000 0.0000000
 XCD(IM JP= 0.0000000 0.0000000 0.0000000 0.0000000
 YCD(IM JP= 0.0000000 0.0000000 0.0000000 0.0000000
 XCN(I  J = 0.0000000 0.0000000 0.0000000 0.0000000
 YCN(I  J = 0.0000000 0.0000000 0.0000000 0.0000000
 XCN(IP J = 0.0000000 0.0000000 0.0000000 0.0000000
 YCN(IP J = 0.0000000 0.0000000 0.0000000 0.0000000
 XCN(IM J = 0.0000000 0.0000000 0.0000000 0.0000000
 YCN(IM J = 0.0000000 0.0000000 0.0000000 0.0000000
 XCN(I  JP= 0.0000000 0.0000000 0.0000000 0.0000000
 YCN(I  JP= 0.0000000 0.0000000 0.0000000 0.0000000
 XCN(I  JM= 0.0000000 0.0000000 0.0000000 0.0000000
 YCN(I  JM= 0.0000000 0.0000000 0.0000000 0.0000000
 XCN(IP JP= 0.0000000 0.0000000 0.0000000 0.0000000
 YCN(IP JP= 0.0000000 0.0000000 0.0000000 0.0000000
 XCN(IM JM= 0.0000000 0.0000000 0.0000000 0.0000000
 YCN(IM JM= 0.0000000 0.0000000 0.0000000 0.0000000
 XCN(IP JM= 0.0000000 0.0000000 0.0000000 0.0000000
 YCN(IP JM= 0.0000000 0.0000000 0.0000000 0.0000000
 XCN(IM JP= 0.0000000 0.0000000 0.0000000 0.0000000
 YCN(IM JP= 0.0000000 0.0000000 0.0000000 0.0000000
 NCT ICLS=   1   4
     ICN=   0   0   1   0
     NFL=   1
 I  J  = 221 200 XFG=-0.5000000 0.5016432-0.5000000 1.5032864
                 YFG= 0.4976496 0.4988248 0.5000000 0.5000000
 IP J  = 222 200 XFG= 0.0000000 0.0000000 0.0000000 0.0000000
                 YFG= 0.0000000 0.0000000 0.0000000 0.0000000
 IM J  = 220 200 XFG=-0.5000000 0.5000000-0.5000000 0.5000000
                 YFG=-0.1324745 0.4976496 0.5000000 0.5000000
 I  JP = 221 201 XFG=-0.5000000 0.5000000-0.5000000 0.5000000
                 YFG=-0.5000000 0.2978128 0.5000000 0.5000000
 I  JM = 221 199 XFG= 0.0000000 0.0000000 0.0000000 0.0000000
                 YFG= 0.0000000 0.0000000 0.0000000 0.0000000
 IP JP = 222 201 XFG=-0.5000000-0.3879318-0.5000000-0.2758637
                 YFG= 0.2978128 0.3989064 0.5000000 0.5000000
 IP JM = 222 199 XFG= 0.0000000 0.0000000 0.0000000 0.0000000
                 YFG= 0.0000000 0.0000000 0.0000000 0.0000000
 IM JP = 220 201 XFG=-0.5000000 0.5000000-0.5000000 0.5000000
                 YFG=-0.5000000-0.5000000 0.5000000 0.5000000
 IM JM = 220 199 XFG= 0.0000000 0.0000000 0.0000000 0.0000000
                 YFG= 0.0000000 0.0000000 0.0000000 0.0000000
 IXB(I  J )=   0   1   0   1
 IYB(I  J )=   1   1   0   0
 IXB(IP J )=   1   1   1   1
 IYB(IP J )=   1   1   1   1
 IXB(IM J )=   0   0   0   0
 IYB(IM J )=   1   1   0   0
 IXB(I  JP)=   0   0   0   0
 IYB(I  JP)=   0   1   0   0
 IXB(I  JM)=   1   1   1   1
 IYB(I  JM)=   1   1   1   1
 FATAL CALLED FROM FILE:  module_fr_cawfe.b  LINE:    5830
